data_image0
_chemical_formula_structural       NC2ONC2OCONC2OCSNC2OC4N2C2ONC2OC3NCN3C2OCSNC2OC7NC2OC3O2NC2OC4NC2OCSNC2OC3NCN3C2OCSNC2OC2O2NC2OC2ON2C2OC4NC2OCSNC2OC4N2C2OCONC2OC7ONC2OCONC2OCONC2OCSNC2OCSNC2OC2NC2N2C2OC2O2NC2OC7NC2OC2O2NC2OC3O2NC2OC4NC2OCSNC2OC4NC2OC4N2C2OCOCNC2OCNC2OC3NCN3C2ONC2OC4NC5NC2OC3O2NC2OCSNC2OCOCNC2OC4N2C2OC2O2NC2OC3NCN3C2OCSNC2ONC2OC3O2NC2OC3NC2OC3NCN3C2OC2ON2C2OC3O2NC2OC3O2NC2OC2ON2C2OCNC2OCSNC2OC2NC2N2C2OCSNC2OCONC2OC3O2NC2OC2O2NC2OCSNC2OC4NC2OCONC2OC3NCN3C2ONC2OC2O2NC2OCSNC2OCSNC2OCOCNC2OC2ON2C2OC7ONC2OC3ON2C2OC3NC2OC3NC2OCSNC2OC4N2C2ONC2OC3O2NC2OCONC2OC2NC2N2C2OC4NC5NC2OC3NC2OC2O2NC2OC2O2NC2OC2O2NC2OCSNC2OC3O2NC2OC3O2NC2OC4NC2OC4N2C2OC3NC2OC3NC2OC3O2NC2OCSNC2OC3NC2OCNC2ONC2OC7NC2OC3NC2OC3NCN3C2OC3NC2OC3NC2OC4NC2OC4NC2OC4NC2OC7NC2OCONC2OC3NC2OC2O2NC2ONC2OC7NC2OC3NCN3C2OCNC2OCONC2OC7ONC2OC2SCNC2OC4N2C2OC4N2C2ONC2OCONC2OC4N2C2OC3NC2OC2SCNC2OC3NC2OC2ON2C2OC4NC2OC3O2NC2OC4N2C2OC4NC2OC3NCN3C2OCONC2OCSNC2ONC2OCOCNC2OC2NC2N2C2OCNC2OC3NC2OC7ONC2OC2SCNC2OC3NCN3C2OC3NC2OC3NC2OC7ONC2OC3NC2OCOCNC2OC4N2C2OCOCNC2OC7NC2OC3NC2OC2ON2C2OC4NC2OC7ONC2OCOCNC2OC4NC2OCNC2OCOCNC2ONC2OC4NC2OC7ONC2OC3NC2OC3O2NC2OCONC2OC2NC2N2C2ONC2OC4NC2OC3NC2ONC2OC2ON2C2OCONC2OC2SCNC2OC7ONC2OC2O2NC2OC3NC2OC3NC2OC7NC2OC2O2NC2OCNC2OCONC2OC7NC2OC2NC2N2C2OC4NC2OC3NCN3C2ONC2OC3NCN3C2OC3O2NC2OC4N2C2OC7N2C4O2C4O2N3C2OC2NC2N2C2OC3NCN3C2OC4NC5NC2OC4NC5NC2ONC2ONC2OC3ON2C2OC3NC2OC4NC2OC4NC5NC2OC4NC2OCOCNC2OCNC2OCOCNC2OC4N2C2OC3ON2C2ONC2OC3NC2OC3NCN3C2OCNC2ONC2OCOCNC2OC7NC2OC7NC2OC4NC5NC2OCONC2OC3NC2OCONC2OC4NC2OC3NC2OC2NC2N2C2OC3O2NC2OC3NCN3C2OC3NCN3C2OC4NC2OC4NC2OCOCNC2OC4NC2OC4NC2OC3ON2C2OC4NC5NC2OC4NC2OCONC2OC4NC2OC3NC2OC2O2NC2OC2ON2C2OC3O2NC2OC3NCN3C2OC3NC2OCONC2OC3NC2OC7ONC2OCNC2OC7NC2OC7ONC2OCONC2OC3O2NC2OC3ON2C2OC3NC2OC2O2NC2OC7NC2OCONC2ONC2OC2NC2N2C2OC4N2C2OC7ONC2ONC2OC3NC2OC7NC2ONC2OC3NC2OC3O2NC2OC2SCNC2OCOCNC2OC2ON2C2OC3NC2OC4NC2OC3NCN3C2OC3O2NC2OC4NC2OC2O2NC2OC4N2C2OCOCNC2OC3NC2ONC2OC3ON2C2OC4NC2OC2SCNC2OC2O2NC2ONC2OC4NC2OC4N2C2OC3ON2C2OC4NC2OC3NCN3C2OC4NC2OC2NC2N2C2OC3NCN3C2OCSNC2OC3NC2OC2ON2C2OC3NC2OC4NC2OC7NC2OC3NC2ONC2OC2O2NC2OC2NC2N2C2ONC2OC2SCNC2OC3O2NC2OC2O2NC2OC3NC2OCOCNC2OCSNC2OC2O2NC2OC3NCN3C2OCOCNC2OC3O2NC2OC7NC2OC4NC2OCONC2OC2ON2C2OC7ONC2OC4NC2OCOCNC2OC2ON2C2OC3NC2OC2O2NC2OC2O2NC2OC4NC2OCOCNC2OC4NC2OC3NC2OC3NC2ONC2OCOCNC2OC4NC2ONC2OC3NCN3C2OC4NC2OC3NCN3C2OCNC2OC4N2C2OC2O2NC2OC3NC2OC4N2C2OCOCNC2OC4NC2OC4NC2OCNC2OCNC2OC4NC2OCOCNC2OCSNC2OC4N2C2OC4N2C2OC3NC2OC2O2NC2OC3ON2C2OC2NC2N2C2OC7NC2OC4N2C2OC3NC2OC7ONC2OC2SCNC2OC4N2C2OC3ON2C2OC2NC2N2C2OC4NC2OC3NC2OC4N2C2OC3NCN3C2OC4NC2OC2NC2N2C2OC7ONC2OCNC2OC2ON2C2OC2ON2C2OC3NCN3C2OC3NCN3C2OC4NC2OC3O2NC2OC2O2NC2OC4NC2OC2NC2N2C2OC4NC2OC4NC2OC3NC2OC2O2NC2OC3NCN3C2OC3NCN3C2OC4NC5NC2OC2NC2N2C2OC3NC2OCNC2OC3NCN3C2OC4N2C2OC3NC2OC4NC2OC2O2NC2OC3NC2OC7ONC2OC4N2C2OC4N2C2OC3NC2OCONC2ONC2OC4N2C2OCSNC2OC7NC2OC7NC2OC3ON2C2ONC2OC2O2NC2OC2NC2N2C2ONC2OC7NC2OC2O2NC2OC2ON2C2OC4N2C2OC3NC2OC2ON2C2OCONC2OC2SCNC2OC3ON2C2OCOCNC2OC3NC2OC7NC2OC3NC2ONC2OC7ONC2ONC2OC3NC2OCOCNC2OC7NC2OC4N2C2OC7ONC2OC3NCN3C2OCOCNC2OC4N2C2OC3NC2OC3NC2OC3NC2OC7NC2OC3O2NC2OC2ON2C2OC4NC2OC3O2NC2OC4NC2OC7ONC2OC2ON2C2OC3NC2OC2SCNC2OCSNC2OC2O2NC2OC4NC2OC4NC2ONC2OC4NC2OC4N2C2OC3NC2OCNC2OC3NC2OC2ON2C2OC2ON2C2ONC2OCOCNC2OC2NC2N2C2ONC2OCONC2OC4NC2OC2ON2C2OC2NC2N2C2OC4NC2OC4NC2OC3NCN3C2OCOCNC2OC2ON2C2OCOCNC2OC7NC2OC3NCN3C2OC3NC2OCOCNC2OC2SCNC2OC3NC2OC2O2NC2OC3O2NC2OC3NC2OCONC2OC3NCN3C2OC3NC2OC2ON2C2OC7ONC2OC3NC2ONC2OC4NC2OC2SCNC2OC7ONC2OC4NC2OC3ON2C2OCONC2OC3O2NC2OC7NC2OC2O2NC2OC4NC2ONC2OCSNC2OCOCNC2OCSNC2OC2O2NC2ONC2OCONC2OCOCNC2OC4N2C2OC3O2NC2OC3NCN3C2OC2NC2N2C2OC4NC2OC4NC2OC7ONC2ONC2OC3NCN3C2OC3NC2OCNC2OC3NC2OC4NC2OC7ONC2OC3NCN3C2OCOCNC2OCONC2OC7ONC2OC2O2NC2OC4NC2OC4NC2OC7ONC2OC2NC2N2C2OCOCNC2OC2O2NC2OC7NC2OC3O2NC2OCONC2ONC2OC7ONC2OCONC2OC3O2NC2OC4NC2OC7NC2OC4NC2OC2SCNC2OC3NC2OC4NC2OC4NC5NC2OCOCNC2OCONC2OC7ONC2OCOCNC2OC4NC2OCONC2OC4N2C2OC3ON2C2OCNC2OC3O2NC2OC3NC2OCONC2OCONC2OC4NC2OC3NC2OC3O2NC2OC2NC2N2C2OC4NC2OCOCNC2OC2ON2C2OCSNC2OC3NC2OC3NCN3C2OC3NC2OC2O2NC2OC3NC2OC3NCN3C2OC3NC2OCONC2OC3NC2ONC2OC7NC2OCONC2OC3ON2C2OC2ON2C2OCSNC2OC4NC2OCNC2OC7ONC2OC4N2C2OC2ON2C2OC2O2NC2OC4N2C2OC3ON2C2OC2SCNC2OCONC2OC7ONC2ONC2OC7NC2OC4NC2OC7NC2OC3NC2OC3NC2OC7ONC2OC4NC2OCONC2OCONC2OCONC2OC3NC2OC3O2NC2OCNC2OC4N2C2OC7ONC2OC2O2NC2OCNC2OC7NC2OC4NC2OC3NC2OCOCNC2OC2ON2C2OC2SCNC2OC3NC2OC3NC2OC2SCNC2OC7ONC2OC3NC2OCNC2OC7NC2OC4N2C2OC3NCN3C2OC3NC2OC4NC5NC2OCNC2OC7ONC2OC7NC2OC3ON2C2OC3NCN3C2OC3NC2OC4NC2OC3NC2OC4N2C2OC4N2C2OC7ONC2OCNC2OCONC2OC3O2NC2OC3NCN3C2OC2ON2C2ONC2OC3NC2OC2ON2C2OC3NC2OC4NC2OCONC2ONC2OC3NC2OC4NC2OC7NC2OC2O2NC2OC7ONC2OC2ON2C2OC7ONC2OC2O2NC2ONC2OC4NC2OC3NCN3C2OC2O2NC2OCOCNC2OC3O2NC2OC2O2NC2OC3O2NC2OC4NC2OC4N2C2OC3ON2C2OC7ONC2OC3NC2OC3O2NC2ONC2OCONC2OCONC2OC4NC2OC3NC2OC3NC2OC3NC2OCOCNC2OC2NC2N2C2OC7ONC2OC7ONC2OCONC2OC4NC2OC4NC2OCOCNC2OCONC2OCSNC2OC4NC2OC2O2NC2OC7NC2OCOCNC2OC3ON2C2OC3NC2OCNC2OC2O2NC2OC4N2C2OCSNC2OC2O2NC2ONC2OC3NC2OC4NC2OCONC2OC3NC2OCONC2OCONC2OC7NC2OC4NC2OC4NC2OC3NC2OC2NC2N2C2OC3NCN3C2OC3NC2OC2O2NC2OC2ON2C2OC2O2NC2OC3O2NC2OCONC2OCSNC2OCNC2OCONC2OCONC2OC3O2NC2OC2O2NC2OC3O2NC2OCONC2OC4N2C2OC4NC5NC2OC3NC2OC3O2NC2OC3O2NC2OC4NC2OC2SCNC2OC4N2C2OC2SCNC2OC2NC2N2C2OCOCNC2OCNC2OC3NCN3C2OC3NC2OC3NCN3C2OC2O2NC2OC4NC2OC3O2NC2OC2NC2N2C2OC4NC2OCOCNC2ONC2OC4NC2OC2O2NC2OC7NC2OC7ONC2OC3NCN3C2OC4N2C2OCOCNC2OCONC2OC3NCN3C2OCONC2OC7ONC2OCONC2OC3O2NC2OC4NC2OC4NC2OCOCNC2OC4NC2OC4N2C2OCOCNC2OC7ONC2OC4NC2OC2NC2N2C2OCOCNC2OC7OC8NO5C8NO5Zn2COCOC29OC4OC13I4SCNCOCOCOCOCOCOCOCOCOCOCOCOCOCOCOPO4COCOCOSCNCOCOCOCOCOCOI15Ca2NaO407
_chemical_formula_sum              "N1077 C4040 O1599 S51 Zn2 I19 P1 Ca2 Na1"
_cell_length_a       53.705
_cell_length_b       60.979
_cell_length_c       63.60300000000001
_cell_angle_alpha    103.15
_cell_angle_beta     97.39
_cell_angle_gamma    94.23

_space_group_name_H-M_alt    "P 1"
_space_group_IT_number       1

loop_
  _space_group_symop_operation_xyz
  'x, y, z'

loop_
  _atom_site_type_symbol
  _atom_site_label
  _atom_site_symmetry_multiplicity
  _atom_site_fract_x
  _atom_site_fract_y
  _atom_site_fract_z
  _atom_site_occupancy
  N   N1        1.0  0.6407105114423853  0.6161645943178838  0.18212838241821525  1.0000
  C   C1        1.0  0.6391446431694737  0.5975486740204781  0.19284085609044235  1.0000
  C   C2        1.0  0.6211763213092502  0.6009606794488938  0.20954643622258926  1.0000
  O   O1        1.0  0.6161300876465985  0.5861921278191267  0.21913214056039004  1.0000
  N   N2        1.0  0.6114515142953864  0.6206909867017151  0.21284509427409823  1.0000
  C   C3        1.0  0.5948640521872087  0.6272823947244773  0.22904444470527094  1.0000
  C   C4        1.0  0.570287336137919  0.6337909315720557  0.21851160092693786  1.0000
  O   O2        1.0  0.5697218521639237  0.6429380738286229  0.20304710006169532  1.0000
  C   C5        1.0  0.607416459403166  0.6472105804408884  0.24756265376671235  1.0000
  O   O3        1.0  0.5923645468517682  0.6517689708742025  0.26444786379275326  1.0000
  N   N3        1.0  0.549995616807867  0.629113108801086  0.22734612570845444  1.0000
  C   C6        1.0  0.5253373608401896  0.6362032385048867  0.2213366892581807  1.0000
  C   C7        1.0  0.5222009569378915  0.6599972970283189  0.23423738163784444  1.0000
  O   O4        1.0  0.5007025048252705  0.6660642518653846  0.23449866148350854  1.0000
  C   C8        1.0  0.5043697927293338  0.6196203500921043  0.22494561712641575  1.0000
  S   S1        1.0  0.4964240075739792  0.5939206189284117  0.20378194962762555  1.0000
  N   N4        1.0  0.542784218384655  0.6733925085211226  0.24526012512679768  1.0000
  C   C9        1.0  0.5403639533694  0.6952080673900147  0.25979381654186195  1.0000
  C   C10       1.0  0.5268946341560993  0.7104223262497266  0.24710541403680022  1.0000
  O   O5        1.0  0.5341810674807382  0.7141386387555338  0.23043249388536136  1.0000
  C   C11       1.0  0.5663578986982415  0.7067135695293624  0.2716820495195774  1.0000
  C   C12       1.0  0.5847386331478043  0.7134648820284882  0.2572300080562832  1.0000
  C   C13       1.0  0.6088982514984299  0.7276380137681827  0.27052262020444307  1.0000
  C   C14       1.0  0.6300279794651023  0.7277408927509917  0.2563808485578749  1.0000
  N   N5        1.0  0.650537756897577  0.7137169691900042  0.2619493752685906  1.0000
  N   N6        1.0  0.5066560739929521  0.7186116551585997  0.2547151895417665  1.0000
  C   C15       1.0  0.49290548078647395  0.7341340321901427  0.2446559154836995  1.0000
  C   C16       1.0  0.481777993336353  0.7246273038644176  0.2209610994800386  1.0000
  O   O6        1.0  0.4787548653927505  0.7375014261496713  0.20858296679170296  1.0000
  N   N7        1.0  0.47573397559464975  0.7022567782454036  0.21411883352171057  1.0000
  C   C17       1.0  0.46237447006669447  0.6925801678702752  0.19212233651486615  1.0000
  C   C18       1.0  0.44554096722130254  0.6710377648571992  0.19112620710327186  1.0000
  O   O7        1.0  0.4418587981133946  0.6555149454129453  0.17438796699041698  1.0000
  C   C19       1.0  0.48072856716772633  0.6881567590546318  0.17544941636342729  1.0000
  C   C20       1.0  0.4987093098573108  0.6708317215413664  0.17845413458856416  1.0000
  C   C21       1.0  0.5182682311270669  0.6708435549051558  0.16321825358827768  1.0000
  N   N8        1.0  0.5348743780407574  0.6531066305238179  0.1639041131831459  1.0000
  C   C22       1.0  0.5342787869602457  0.6347574285485886  0.14783540267480522  1.0000
  N   N9        1.0  0.5177245593097697  0.6316537173532579  0.12985608329504594  1.0000
  N   N10       1.0  0.5501270199600934  0.6194826899269721  0.14989298145940982  1.0000
  N   N11       1.0  0.435187961201082  0.669891884149294  0.208746266695243  1.0000
  C   C23       1.0  0.4171592274032657  0.6508097018162289  0.20845232686887094  1.0000
  C   C24       1.0  0.39460597829941707  0.6493696251485567  0.1908812572479618  1.0000
  O   O8        1.0  0.3846467457978601  0.6665268741642757  0.18892165840548122  1.0000
  C   C25       1.0  0.4087504352724081  0.6534596694015185  0.23075909369244144  1.0000
  S   S2        1.0  0.43430445716237803  0.6511717049694009  0.25198808115264765  1.0000
  N   N12       1.0  0.3869562252504865  0.628835932495644  0.17786625493581998  1.0000
  C   C26       1.0  0.3646077510325355  0.6241171618793233  0.16099737490013305  1.0000
  C   C27       1.0  0.3665093986298745  0.6389356875141948  0.14479802446896034  1.0000
  O   O9        1.0  0.34823754510745525  0.6480541481103188  0.1382823583177124  1.0000
  C   C28       1.0  0.34038785172786146  0.6267648551479199  0.17118728888103205  1.0000
  C   C29       1.0  0.3391801271618671  0.6150511636637649  0.18962384799070342  1.0000
  C   C30       1.0  0.3337368227487176  0.5918255086198548  0.18536172050830818  1.0000
  C   C31       1.0  0.34354240829398536  0.6272944850325596  0.2111631052676357  1.0000
  C   C32       1.0  0.3326245379026085  0.5809307091147092  0.2022632605247031  1.0000
  C   C33       1.0  0.3424110786208023  0.6164981394609731  0.22812996524544668  1.0000
  C   C34       1.0  0.3368432790711026  0.5933431559952039  0.22362288790774137  1.0000
  N   N13       1.0  0.3889769417413852  0.641275000963085  0.13833134828877444  1.0000
  C   C35       1.0  0.39371127516648313  0.6552880666447651  0.12332408715344403  1.0000
  C   C36       1.0  0.37677164636470245  0.6462030172917345  0.10145823006943165  1.0000
  O   O10       1.0  0.3698060175109882  0.6257980588948531  0.0944526642075636  1.0000
  C   C37       1.0  0.4215008478088387  0.6559603482939181  0.12007441907299708  1.0000
  C   C38       1.0  0.42945006832114824  0.6326436143370563  0.1108806345036924  1.0000
  C   C39       1.0  0.4580745382660246  0.6321628449093  0.11337912302785513  1.0000
  O   O11       1.0  0.47217714119190035  0.6503924909627373  0.11672677105042611  1.0000
  O   O12       1.0  0.466342774158261  0.6132648949552385  0.11204006381882674  1.0000
  N   N14       1.0  0.37022679536780095  0.6616948094674054  0.0906804364357885  1.0000
  C   C40       1.0  0.3543354369521039  0.6558308766833686  0.06940245900452029  1.0000
  C   C41       1.0  0.37016893021407754  0.6529921517880286  0.05083525997201686  1.0000
  O   O13       1.0  0.39087113928541023  0.6641626051160444  0.05310512863122352  1.0000
  C   C42       1.0  0.33660373007519706  0.6739162629030993  0.0677367999884118  1.0000
  C   C43       1.0  0.31931430737019406  0.6778726721441367  0.0851772296864889  1.0000
  C   C44       1.0  0.3094037717656642  0.7006373180307874  0.08705517857719945  1.0000
  C   C45       1.0  0.29780707880185503  0.6590573270138019  0.07986998282143734  1.0000
  N   N15       1.0  0.576599619389244  0.5538464661786096  0.10771261637501547  1.0000
  C   C46       1.0  0.5598497014303531  0.5418559646222667  0.11888232977715475  1.0000
  C   C47       1.0  0.5351380365063179  0.5524600461383352  0.12085825860998932  1.0000
  O   O14       1.0  0.5350129220124403  0.5731224207545895  0.12578991569689876  1.0000
  C   C48       1.0  0.5727741936424469  0.5412816753107768  0.14158101636922138  1.0000
  S   S3        1.0  0.5817541121169261  0.5686192713155273  0.16093205493871704  1.0000
  N   N16       1.0  0.5144290456831745  0.5380688949516971  0.11786987037520645  1.0000
  C   C49       1.0  0.48901823479743034  0.5447320642140535  0.1142446125166174  1.0000
  C   C50       1.0  0.47836408606089903  0.552828515599925  0.1354409399961156  1.0000
  O   O15       1.0  0.4827306342485252  0.5438007485003135  0.1508564508902961  1.0000
  C   C51       1.0  0.471421429128258  0.5247957945284387  0.09953129120765908  1.0000
  C   C52       1.0  0.4750303070300197  0.5193835926856252  0.07583647520399817  1.0000
  C   C53       1.0  0.4604813813645481  0.4965813533401773  0.06388292226486667  1.0000
  N   N17       1.0  0.43353934904201  0.49580689695322944  0.06566289121345319  1.0000
  C   C54       1.0  0.41660234910793575  0.4782480337687129  0.055685267107156274  1.0000
  N   N18       1.0  0.4236960549214174  0.45984589352184696  0.043307134418820656  1.0000
  N   N19       1.0  0.39249172670385457  0.4789967061738852  0.05810210567954898  1.0000
  N   N20       1.0  0.4635574284090577  0.569563281516139  0.1357512098128417  1.0000
  C   C55       1.0  0.45084714101696977  0.5785972910893794  0.1543020788549911  1.0000
  C   C56       1.0  0.4225787530196897  0.5785575564896177  0.14745981289666307  1.0000
  O   O16       1.0  0.41015312121697456  0.5903449884038247  0.15988693555606073  1.0000
  C   C57       1.0  0.46245631752139477  0.6026135751622269  0.16584738203527247  1.0000
  S   S4        1.0  0.49573813367937797  0.6040181043338518  0.17526978646953323  1.0000
  N   N21       1.0  0.41227875837152167  0.565620951365234  0.12802712437539743  1.0000
  C   C58       1.0  0.38631400223881696  0.5658247013656167  0.1183271101051186  1.0000
  C   C59       1.0  0.3684063384632557  0.5489930135900077  0.12516937606344658  1.0000
  O   O17       1.0  0.37625742869635204  0.5342673511829631  0.13419986072921122  1.0000
  C   C60       1.0  0.3841599704480724  0.5602765996013505  0.0934238748152613  1.0000
  C   C61       1.0  0.3921020128066982  0.5369929627625892  0.0841647702845406  1.0000
  O   O18       1.0  0.41503676430478054  0.5343691739826789  0.08703884858684544  1.0000
  O   O19       1.0  0.3755712672565914  0.5212010840916014  0.07441576604319976  1.0000
  N   N22       1.0  0.3438008691203903  0.5511229054497438  0.11991111916945704  1.0000
  C   C62       1.0  0.32348451749202073  0.5372096117170191  0.1255939558126507  1.0000
  C   C63       1.0  0.3265107230245087  0.5120900269220063  0.11966616931414698  1.0000
  O   O20       1.0  0.3170842143617268  0.49932616334375146  0.1297091133818599  1.0000
  C   C64       1.0  0.29775632231426613  0.5400683634187411  0.11354242293139519  1.0000
  C   C65       1.0  0.2901926022880419  0.5638641110788342  0.11950286941060692  1.0000
  O   O21       1.0  0.3050878103554539  0.5798653637498691  0.13062359284168418  1.0000
  N   N23       1.0  0.26652060067773653  0.5662687004601434  0.1119094238959947  1.0000
  N   N24       1.0  0.3382271800846126  0.5044196842616615  0.10276462929775204  1.0000
  C   C66       1.0  0.33927716361806914  0.48033226231119475  0.09417505437154552  1.0000
  C   C67       1.0  0.36533490033662364  0.4729712510682706  0.09876378166102086  1.0000
  O   O22       1.0  0.36875447593626853  0.4529542940495328  0.09126831608853268  1.0000
  C   C68       1.0  0.33032108350137196  0.47379669023873705  0.06953309892735232  1.0000
  C   C69       1.0  0.3019889535642622  0.47392930236150044  0.06278881291114835  1.0000
  C   C70       1.0  0.295819083566345  0.4706615853571411  0.03826116739943318  1.0000
  C   C71       1.0  0.2872018468692462  0.45556540263774625  0.07054555832930062  1.0000
  N   N25       1.0  0.383764256439066  0.4884064221655835  0.11078265456156837  1.0000
  C   C72       1.0  0.40952186831904247  0.4823285808588604  0.11391801270953729  1.0000
  C   C73       1.0  0.41070109492991624  0.46204559546778523  0.12400994674831224  1.0000
  O   O23       1.0  0.42661477129955844  0.44876016208732666  0.11978047924662501  1.0000
  C   C74       1.0  0.4274166889886909  0.5025052756998729  0.12801079438504342  1.0000
  S   S5        1.0  0.42344951000176345  0.5102333765047085  0.1563923176203037  1.0000
  N   N26       1.0  0.3937791796340778  0.45912625453076905  0.13700861907010006  1.0000
  C   C75       1.0  0.3929290250198627  0.43973613479070833  0.14685560325356492  1.0000
  C   C76       1.0  0.3809283064441358  0.4177895720526742  0.13086854269699424  1.0000
  O   O24       1.0  0.3835791744971261  0.39953333789065076  0.1358165297742577  1.0000
  C   C77       1.0  0.37813274847706646  0.4443444373448448  0.16612499187129054  1.0000
  C   C78       1.0  0.39354599135465  0.4572453046167529  0.18772956910963887  1.0000
  C   C79       1.0  0.4097482307145721  0.44187092251832716  0.1977888431677058  1.0000
  C   C80       1.0  0.40442218016241305  0.442019535925409  0.2206834896440205  1.0000
  N   N27       1.0  0.4197635208288505  0.4608219676220937  0.23771566958324747  1.0000
  N   N28       1.0  0.3676035646535571  0.4190257085479634  0.11202373382847275  1.0000
  C   C81       1.0  0.3495263794206487  0.39994104254301943  0.09967826112084513  1.0000
  C   C82       1.0  0.3628029068497961  0.3794483882100898  0.09053346652260245  1.0000
  O   O25       1.0  0.35752685737052986  0.36112399473215423  0.09494256391818374  1.0000
  C   C83       1.0  0.33251101672155625  0.40698257814139405  0.08189490162533393  1.0000
  O   O26       1.0  0.31101573822240636  0.41480616390967406  0.09074575639720453  1.0000
  N   N29       1.0  0.3800881117539142  0.3819762972029516  0.07781240403683273  1.0000
  C   C84       1.0  0.40007425729834595  0.3668260058518553  0.07567317530045813  1.0000
  C   C85       1.0  0.4246295806672695  0.38234511878704835  0.08458935003374472  1.0000
  O   O27       1.0  0.4348058160705258  0.393008980708018  0.07304404685346334  1.0000
  C   C86       1.0  0.39844642175719136  0.352348119918476  0.052288629113523284  1.0000
  C   C87       1.0  0.379636692547347  0.33149410460867834  0.04943088080157245  1.0000
  C   C88       1.0  0.3538003400710996  0.3334392977899321  0.04792852168900401  1.0000
  C   C89       1.0  0.38762767392919806  0.3103912899360543  0.04980647057971455  1.0000
  C   C90       1.0  0.33648740167787056  0.31502311645044817  0.046344512624665546  1.0000
  C   C91       1.0  0.37028146387473126  0.29166694283563205  0.04817347154431408  1.0000
  C   C92       1.0  0.3448590235130047  0.29416800677561483  0.04639350259572756  1.0000
  O   O28       1.0  0.327446890736136  0.27591668296107713  0.04467885360855706  1.0000
  N   N30       1.0  0.4338797736324821  0.3827722789920858  0.10523045784120676  1.0000
  C   C93       1.0  0.4460306324068092  0.4030578003477292  0.12128283835919344  1.0000
  C   C94       1.0  0.468879634042985  0.41374926856286365  0.1139506726902453  1.0000
  O   O29       1.0  0.4805734151447799  0.4028616919038393  0.10038045070606734  1.0000
  C   C95       1.0  0.454067268554536  0.3978234501621233  0.1434263052792239  1.0000
  O   O30       1.0  0.4550622511917892  0.41736460039328016  0.160850404986947  1.0000
  N   N31       1.0  0.4749914268278903  0.43570438156958  0.12342206709556806  1.0000
  C   C96       1.0  0.49311074495157486  0.45024756732214605  0.11617155137838996  1.0000
  C   C97       1.0  0.4972179724562756  0.4738455078100958  0.13126046246549036  1.0000
  O   O31       1.0  0.5081290753323533  0.48961675079232964  0.1256429457837127  1.0000
  C   C98       1.0  0.4840929799498402  0.45179049927028786  0.09267269525897708  1.0000
  O   O32       1.0  0.5047972313877985  0.4549551138259054  0.08138867192435979  1.0000
  N   N32       1.0  0.4888647301240366  0.47666590462730674  0.15041554115073796  1.0000
  C   C99       1.0  0.49150672781723775  0.49923809139842856  0.16488391260438617  1.0000
  C   C100      1.0  0.5185356910286302  0.5057899265875079  0.17675581559174766  1.0000
  O   O33       1.0  0.53151588831801  0.49144649879162083  0.1819650825146752  1.0000
  C   C101      1.0  0.47317092908684344  0.5007673770775561  0.18155683275582507  1.0000
  S   S6        1.0  0.4410726088788839  0.4877072762803664  0.171154628900324  1.0000
  N   N33       1.0  0.5270529408360883  0.5277457628379957  0.18087097316095688  1.0000
  C   C102      1.0  0.5504979854600619  0.5365535834084671  0.19560062446026916  1.0000
  C   C103      1.0  0.5493350895405561  0.5297961044307411  0.21710722175649344  1.0000
  O   O34       1.0  0.5288982303583829  0.5259736204398531  0.22329628810066124  1.0000
  C   C104      1.0  0.5551804219934673  0.5624183767487091  0.1998954119233724  1.0000
  S   S7        1.0  0.5510888703383943  0.5749210510106658  0.17642921578466755  1.0000
  N   N34       1.0  0.5716326420074884  0.5281605614954832  0.22845656505252676  1.0000
  C   C105      1.0  0.5728552171257737  0.5204987975097424  0.2486404331300767  1.0000
  C   C106      1.0  0.5572537539862491  0.5338990192318284  0.2645131837541693  1.0000
  O   O35       1.0  0.5433062925268813  0.5239974378031028  0.27422952801480216  1.0000
  C   C107      1.0  0.6004702351382072  0.5219279687089999  0.2593529068023038  1.0000
  C   C108      1.0  0.6133015448507798  0.5455933738594403  0.2675015719889522  1.0000
  N   N35       1.0  0.6186169088617587  0.5592325791373916  0.25370273013981814  1.0000
  C   C109      1.0  0.6218497367344376  0.558078376514747  0.2880283698639362  1.0000
  C   C110      1.0  0.6298015933670996  0.5790840838595581  0.26536234325257757  1.0000
  N   N36       1.0  0.6319937735359861  0.5788321488725282  0.28624840091534964  1.0000
  N   N37       1.0  0.5587132080500543  0.5563410205557938  0.267011672278332  1.0000
  C   C111      1.0  0.5469075057598546  0.5705643546545357  0.283880552314019  1.0000
  C   C112      1.0  0.5195237943773272  0.5735609237683142  0.27628710679940677  1.0000
  O   O36       1.0  0.5104155324606249  0.5906129576002491  0.2853502514458794  1.0000
  C   C113      1.0  0.5623364883262094  0.5937181152831229  0.29261709715341155  1.0000
  C   C114      1.0  0.5667738491576712  0.6056475423059358  0.2748500676482543  1.0000
  O   O37       1.0  0.5555133588009651  0.5974410415682515  0.2559236088279628  1.0000
  O   O38       1.0  0.581577362340373  0.6234360869435142  0.27986337468693384  1.0000
  N   N38       1.0  0.5059611289217575  0.5574359137765981  0.260169406320004  1.0000
  C   C115      1.0  0.47988685594999736  0.5601505531155172  0.25203707112370966  1.0000
  C   C116      1.0  0.46237699432163454  0.5576393306532308  0.26853036138125447  1.0000
  O   O39       1.0  0.44598700134004654  0.5706353450612514  0.27199231933630347  1.0000
  C   C117      1.0  0.47049647201898176  0.5430983385187464  0.23020387402040526  1.0000
  C   C118      1.0  0.4427293723614165  0.543343383783405  0.2217286090266768  1.0000
  C   C119      1.0  0.43509869151567865  0.5591828003767259  0.21023229581745745  1.0000
  C   C120      1.0  0.42440327588693494  0.5276493023900691  0.22507625704924777  1.0000
  C   C121      1.0  0.4097460387443636  0.5593522780109327  0.2022469305343491  1.0000
  C   C122      1.0  0.3989618726392856  0.5277816242746075  0.21713988173720147  1.0000
  C   C123      1.0  0.39169773631497606  0.5436248901443105  0.20572521847975214  1.0000
  N   N39       1.0  0.46566520415814044  0.5412520796812774  0.27907953514994155  1.0000
  C   C124      1.0  0.4488855875476745  0.5375478621871347  0.2945440360151841  1.0000
  C   C125      1.0  0.452025561275498  0.5566463170439861  0.3154137636876022  1.0000
  O   O40       1.0  0.43420872228743596  0.5590136269070628  0.3258649575141652  1.0000
  C   C126      1.0  0.45230032953904337  0.5149062979665009  0.3004391625329798  1.0000
  C   C127      1.0  0.44251621455768014  0.49480233496155407  0.28161068365481234  1.0000
  O   O41       1.0  0.4525397060373576  0.4923081750391177  0.26456217372523133  1.0000
  O   O42       1.0  0.4247870941706289  0.4813934534973967  0.283831562342957  1.0000
  N   N40       1.0  0.47375029936055335  0.5703026322664666  0.3219294298388501  1.0000
  C   C128      1.0  0.47563001571218727  0.5905487758484377  0.3400067291607334  1.0000
  C   C129      1.0  0.4647388202143083  0.6102924961283198  0.3327072234724932  1.0000
  O   O43       1.0  0.4463444262129779  0.6183882671559446  0.3400067291607334  1.0000
  C   C130      1.0  0.5029717849782431  0.5984995162094775  0.35022930312234035  1.0000
  C   C131      1.0  0.5137534772576466  0.5835366022687529  0.362738075733508  1.0000
  C   C132      1.0  0.5377960700866415  0.577738078592864  0.35568351990057795  1.0000
  O   O44       1.0  0.5526916432026097  0.5920779473505937  0.3515846923217228  1.0000
  O   O45       1.0  0.5400015976928283  0.5572521093307023  0.35086617274614657  1.0000
  N   N41       1.0  0.47738993318949763  0.6191941887050322  0.31943094131468736  1.0000
  C   C133      1.0  0.4703900893759264  0.6397601839408273  0.31338884488370555  1.0000
  C   C134      1.0  0.44280862654934705  0.6370548324095369  0.3032315908835146  1.0000
  O   O46       1.0  0.4294005605053242  0.6525089739457107  0.30804893803794603  1.0000
  C   C135      1.0  0.48754166884896416  0.6458165045489465  0.297728384134215  1.0000
  C   C136      1.0  0.5156435249173276  0.6453035896008039  0.30512586976457917  1.0000
  C   C137      1.0  0.530990722613347  0.6530418728147106  0.2892857791211945  1.0000
  C   C138      1.0  0.5234806337356835  0.6599018974670678  0.3281348261733719  1.0000
  N   N42       1.0  0.43373364576786216  0.6171432047515546  0.2898083388125227  1.0000
  C   C139      1.0  0.4100080237702033  0.6146039335823923  0.27529097738781244  1.0000
  C   C140      1.0  0.38839897914283755  0.6010834088079755  0.2815616936837503  1.0000
  O   O47       1.0  0.3664865522168016  0.6040390537787425  0.2751929974456884  1.0000
  C   C141      1.0  0.4138368444426086  0.6036943699252854  0.25190643120087763  1.0000
  S   S8        1.0  0.44050314650316086  0.6179763377712032  0.24406803583095532  1.0000
  N   N43       1.0  0.3936890806476358  0.5866266152712364  0.2939234963817319  1.0000
  C   C142      1.0  0.37338877279460025  0.5735989882301723  0.30032485260050173  1.0000
  C   C143      1.0  0.37490689188675813  0.5796327078853984  0.325064787986819  1.0000
  O   O48       1.0  0.37561662413112723  0.5647262436653608  0.335352681909842  1.0000
  C   C144      1.0  0.37434753936684856  0.5482009518154184  0.2914903278189852  1.0000
  C   C145      1.0  0.3669703895167545  0.539441815825005  0.26670140246160595  1.0000
  C   C146      1.0  0.37263439301917356  0.515112084522469  0.2593202468215958  1.0000
  C   C147      1.0  0.339138654557038  0.5413529602904437  0.2604306861656681  1.0000
  N   N44       1.0  0.37593667696785366  0.6015585730503964  0.3346831523053278  1.0000
  C   C148      1.0  0.3752720060244896  0.6090439600879662  0.35798604854049265  1.0000
  C   C149      1.0  0.3493338861414166  0.6018215703839093  0.3629340356177561  1.0000
  O   O49       1.0  0.33009725155109276  0.6000970849730812  0.3494454635853481  1.0000
  C   C150      1.0  0.38170464520964625  0.6347622572753232  0.3656611440068749  1.0000
  C   C151      1.0  0.40451974088582615  0.6433492464912328  0.3569409291578363  1.0000
  C   C152      1.0  0.4186887117018745  0.6643894306693949  0.3722584601098928  1.0000
  C   C153      1.0  0.44473872232251266  0.6694983866903484  0.366151043717495  1.0000
  N   N45       1.0  0.4478690146343552  0.6921011203198277  0.36082746686208944  1.0000
  N   N46       1.0  0.34881568400609964  0.5971961101117086  0.38236672413902173  1.0000
  C   C154      1.0  0.32504933959521926  0.5880986992111278  0.3874453511391172  1.0000
  C   C155      1.0  0.32134209766082866  0.5958784012734464  0.4112708070656102  1.0000
  O   O50       1.0  0.3007185066338291  0.5912069876301946  0.4168230037859718  1.0000
  C   C156      1.0  0.3232837977810875  0.5624001479990928  0.38130527476601145  1.0000
  O   O51       1.0  0.3476287920539672  0.5555562578067826  0.3874453511391172  1.0000
  C   C157      1.0  0.31481760148495347  0.552880116119696  0.3566306593411102  1.0000
  N   N47       1.0  0.34092743478060694  0.6073518054815147  0.42547789867359437  1.0000
  C   C158      1.0  0.33918892576957943  0.6143028710493094  0.44874813492805116  1.0000
  C   C159      1.0  0.31747640621859397  0.6287688333286954  0.4527653125551363  1.0000
  O   O52       1.0  0.3133411342100347  0.643444664497957  0.44260805855494534  1.0000
  C   C160      1.0  0.36405105659942183  0.6273812523355209  0.46114259760674076  1.0000
  N   N48       1.0  0.30358871263868487  0.6244540177857295  0.46762560377728063  1.0000
  C   C161      1.0  0.2815970535889369  0.6355028263436785  0.4745005297163167  1.0000
  C   C162      1.0  0.25766459242695605  0.6267211608762469  0.4580235694491258  1.0000
  O   O53       1.0  0.23737671475665761  0.6341869257070588  0.46179579722090097  1.0000
  C   C163      1.0  0.28556872829518043  0.6615077067090877  0.4786973372372959  1.0000
  C   C164      1.0  0.2655188000149221  0.6746637491776079  0.4899487005912052  1.0000
  C   C165      1.0  0.24968060053181754  0.6863558437837018  0.4744025497741926  1.0000
  N   N49       1.0  0.2657518166996903  0.7011882867426272  0.465404725089136  1.0000
  C   C166      1.0  0.27607729609765513  0.7218115262343273  0.47613352875171716  1.0000
  N   N50       1.0  0.2717493767161048  0.7304787458910461  0.496252076867851  1.0000
  N   N51       1.0  0.2906363488591761  0.7337679647796803  0.4666131443753324  1.0000
  N   N52       1.0  0.258784733244756  0.6108851987357042  0.4402238799632606  1.0000
  C   C167      1.0  0.2348584577736692  0.6043776373726081  0.4260821083166925  1.0000
  C   C168      1.0  0.22959049544357654  0.6219322421619636  0.41301811603348876  1.0000
  O   O54       1.0  0.24660891331983123  0.6355269023744641  0.410552287490034  1.0000
  N   N53       1.0  0.2055349305064004  0.621937909047153  0.40483679086613233  1.0000
  C   C169      1.0  0.19859870602502788  0.6340816061223238  0.38819653069540144  1.0000
  C   C170      1.0  0.18281854151863353  0.6533685899352827  0.39513677659585345  1.0000
  O   O55       1.0  0.17820927839884984  0.6659796101172166  0.38275864390751785  1.0000
  C   C171      1.0  0.18472944218900084  0.617424753629129  0.3674247829651074  1.0000
  C   C172      1.0  0.1997120878530597  0.598221245354572  0.3600926172961592  1.0000
  C   C173      1.0  0.1960214589734834  0.5767775389241732  0.3629340356177561  1.0000
  C   C174      1.0  0.22126534137339127  0.5988197769820803  0.34906987380720605  1.0000
  N   N54       1.0  0.21386360012460995  0.5639750969954743  0.35423015075907155  1.0000
  C   C175      1.0  0.22956905293664526  0.57709206152014  0.34560791585215705  1.0000
  C   C176      1.0  0.2342554614296917  0.6155875734285308  0.34163972819613386  1.0000
  C   C177      1.0  0.2502865474969198  0.5717116720739631  0.3350750720738239  1.0000
  C   C178      1.0  0.25471171566981116  0.6102887753240841  0.3313028443020488  1.0000
  C   C179      1.0  0.26250986705635904  0.5884824803760528  0.3279878562601859  1.0000
  N   N55       1.0  0.17464760582334266  0.6564683233820848  0.4143571752425171  1.0000
  C   C180      1.0  0.15950497930892504  0.6749047027011942  0.4211831112104911  1.0000
  C   C181      1.0  0.17223134170904805  0.6908525840950461  0.4425427385935294  1.0000
  O   O56       1.0  0.1873586362221048  0.6842581403298769  0.4555087509346091  1.0000
  C   C182      1.0  0.1329780728066317  0.6658489724813287  0.4235182998311138  1.0000
  C   C183      1.0  0.11671728170507299  0.6533226745617461  0.40176675267957945  1.0000
  C   C184      1.0  0.10682349566583392  0.669051508915911  0.3875759910619493  1.0000
  O   O57       1.0  0.12204949630508322  0.6789063518455319  0.3783332165215826  1.0000
  O   O58       1.0  0.08359336490945592  0.6713763768569867  0.3856163922194687  1.0000
  N   N56       1.0  0.16609936873114703  0.7120540953503472  0.4460046965485784  1.0000
  C   C185      1.0  0.1759629099226912  0.7288031687106369  0.4662212246068363  1.0000
  C   C186      1.0  0.16136752413888472  0.7256161531501475  0.4844944838129676  1.0000
  O   O59       1.0  0.1381376154911767  0.72158954333403  0.48126114572287465  1.0000
  C   C187      1.0  0.1745038029848864  0.7529517889631975  0.46341246626594745  1.0000
  S   S9        1.0  0.19802935182203296  0.7631646431867152  0.4489277648219452  1.0000
  N   N57       1.0  0.1753125919509577  0.7271908736081582  0.5036658924885692  1.0000
  C   C188      1.0  0.16483571274526226  0.7294035557600388  0.5238824205468272  1.0000
  C   C189      1.0  0.16579425001965206  0.7544160554697709  0.5350031439779044  1.0000
  O   O60       1.0  0.18269230285356555  0.7682766202860445  0.5329455651932998  1.0000
  C   C190      1.0  0.17988588469275404  0.7174780256027151  0.5391509615278215  1.0000
  O   O61       1.0  0.20348847352058017  0.7308547472513113  0.5482467661550022  1.0000
  C   C191      1.0  0.18506726443039306  0.6944139402850621  0.526805488820194  1.0000
  N   N58       1.0  0.14761543417034972  0.7602520584274857  0.5470383468688059  1.0000
  C   C192      1.0  0.14979047998238718  0.7831804055897646  0.5606902188047539  1.0000
  C   C193      1.0  0.17329589872678375  0.7878983387853425  0.5778203786861049  1.0000
  O   O62       1.0  0.1813086883492691  0.8076211425454102  0.5873081030817817  1.0000
  C   C194      1.0  0.12595321745036792  0.7873275039266309  0.5712230625830869  1.0000
  C   C195      1.0  0.1083383252208751  0.8000128356079022  0.5587469499526273  1.0000
  C   C196      1.0  0.08107224871356696  0.7979403117726351  0.5627804575700665  1.0000
  C   C197      1.0  0.06559009330832695  0.8126266915842218  0.550614614756333  1.0000
  N   N59       1.0  0.04522755864249919  0.8226110300111601  0.5625355077147564  1.0000
  N   N60       1.0  0.18505236518535886  0.7702143383804665  0.581233346670092  1.0000
  C   C198      1.0  0.20832915206750244  0.7730391792456845  0.5964365676896703  1.0000
  C   C199      1.0  0.23122804642753425  0.7815159573437026  0.5874714029853217  1.0000
  O   O63       1.0  0.24980670221761872  0.7917643161777426  0.6003884253553394  1.0000
  C   C200      1.0  0.2125248895490034  0.7506064894316872  0.6025766440627761  1.0000
  C   C201      1.0  0.18858602853840792  0.7391080624831292  0.6077205910242877  1.0000
  O   O64       1.0  0.16900956282475593  0.7355059627305096  0.5938890891944456  1.0000
  O   O65       1.0  0.18937546307858175  0.7335012032031228  0.6255202805101528  1.0000
  N   N61       1.0  0.23072226201588578  0.777642780991949  0.5658668257469734  1.0000
  C   C202      1.0  0.25278093892793346  0.7847139212581314  0.5568036811005007  1.0000
  C   C203      1.0  0.24865666634486344  0.8044437575078918  0.5461401973993356  1.0000
  O   O66       1.0  0.2639969078006087  0.809771056507946  0.5347581941225943  1.0000
  C   C204      1.0  0.26063189762960765  0.7647252271894655  0.5404900207368499  1.0000
  C   C205      1.0  0.284114355823492  0.7541681934094837  0.5494878454219067  1.0000
  C   C206      1.0  0.3075221493017501  0.7715791901330294  0.5581427403095292  1.0000
  N   N62       1.0  0.33140319809351887  0.7622851426047983  0.5540275827403199  1.0000
  C   C207      1.0  0.3543323472914746  0.7720504433992141  0.5637439270009528  1.0000
  N   N63       1.0  0.35730282951516407  0.7918596393751085  0.578342938377433  1.0000
  N   N64       1.0  0.3745762967840815  0.7620940823877053  0.5584856701069633  1.0000
  N   N65       1.0  0.2285288737003405  0.8155113604434482  0.5497164652868626  1.0000
  C   C208      1.0  0.22428001041898898  0.835509147259732  0.5413881702063202  1.0000
  C   C209      1.0  0.24562178032325208  0.8542893350140411  0.551251484380139  1.0000
  O   O67       1.0  0.25315131931888163  0.8594755572092715  0.5710597626795468  1.0000
  C   C210      1.0  0.19894097718992754  0.8435176410616799  0.5464178072353537  1.0000
  S   S10       1.0  0.172227530395843  0.8246221510771578  0.5302021268138271  1.0000
  N   N66       1.0  0.2554940320487593  0.8643854072258707  0.5372893426274651  1.0000
  C   C211      1.0  0.27643782089278734  0.8820389226566712  0.5446704982674752  1.0000
  C   C212      1.0  0.3015122203821336  0.8737806493038326  0.550875894601997  1.0000
  O   O68       1.0  0.3186725032846281  0.8870614625750304  0.5629600874639604  1.0000
  N   N67       1.0  0.3042321326906244  0.8521711480459482  0.5425965894925165  1.0000
  C   C213      1.0  0.326523153816572  0.8417743326828948  0.5490632656727025  1.0000
  C   C214      1.0  0.35006028117375726  0.8526595684373617  0.5428415393478266  1.0000
  O   O69       1.0  0.34899037467921035  0.86593947299637  0.5308389964376331  1.0000
  C   C215      1.0  0.32327479279752835  0.8164398164760348  0.5383671219908294  1.0000
  C   C216      1.0  0.32937473521844507  0.810385256480451  0.5149989057942485  1.0000
  C   C217      1.0  0.3207241820157286  0.7857528502409126  0.5032903027104271  1.0000
  O   O70       1.0  0.30240011290382973  0.7757369657687954  0.5089078193922048  1.0000
  O   O71       1.0  0.33241311117408895  0.7764273614373093  0.48846267146899075  1.0000
  N   N68       1.0  0.3716276473467866  0.8466138916497821  0.5513331343319091  1.0000
  C   C218      1.0  0.3955346349331222  0.8518248606424519  0.544180598556855  1.0000
  C   C219      1.0  0.3991060197570691  0.8316566684810144  0.5261522892060337  1.0000
  O   O72       1.0  0.39805603140422624  0.8123494105089732  0.5293856272961267  1.0000
  C   C220      1.0  0.41751012635023943  0.8566477710762782  0.5631887073289166  1.0000
  C   C221      1.0  0.4426886732027614  0.8594367219145349  0.5549583921904983  1.0000
  C   C222      1.0  0.41398508636196396  0.8777715925589209  0.5806291370269937  1.0000
  N   N69       1.0  0.40259342290097244  0.836116433807526  0.5071115204532641  1.0000
  C   C223      1.0  0.4058057965357891  0.8188542504390832  0.4879401117776626  1.0000
  C   C224      1.0  0.4231554205439095  0.8018241084270167  0.49385156828581234  1.0000
  O   O73       1.0  0.4449566293370331  0.8080381588921749  0.5033719526621971  1.0000
  C   C225      1.0  0.41630684437835397  0.8301390164020831  0.47121820165516176  1.0000
  C   C226      1.0  0.42306730939680026  0.813520237962339  0.4513935933653999  1.0000
  C   C227      1.0  0.4214210060803945  0.8235324302205702  0.4315363250949301  1.0000
  N   N70       1.0  0.39604837751326644  0.829311736104898  0.4253472587507623  1.0000
  C   C228      1.0  0.3805941277462654  0.8185618293870265  0.40730261940958706  1.0000
  N   N71       1.0  0.38785240823381695  0.801270302998651  0.393438457599037  1.0000
  N   N72       1.0  0.3578358016701713  0.8251201022941737  0.40305682191754577  1.0000
  N   N73       1.0  0.41301197491353925  0.7804345631054369  0.48877294128571686  1.0000
  C   C229      1.0  0.42725761883231295  0.7613661839194541  0.4905855702150114  1.0000
  C   C230      1.0  0.4271053854240194  0.7475949661783747  0.4673316639509086  1.0000
  O   O74       1.0  0.4072103994523114  0.7373484439518991  0.45640690040407944  1.0000
  C   C231      1.0  0.4155477744240706  0.7473519905788059  0.5046620219001635  1.0000
  C   C232      1.0  0.4308421508831664  0.7281701314749994  0.5085322296140626  1.0000
  O   O75       1.0  0.44515788064649764  0.7200834103094675  0.49584382710900093  1.0000
  N   N74       1.0  0.4278046562758273  0.7208163714841184  0.5262502691481578  1.0000
  N   N75       1.0  0.44917467257441407  0.7474507539337754  0.45973821843629636  1.0000
  C   C233      1.0  0.44968819573864893  0.7366178855660878  0.4367945819889197  1.0000
  C   C234      1.0  0.44447641219897  0.7109574084075035  0.43160164505634613  1.0000
  O   O76       1.0  0.4461840464502152  0.6999740661384022  0.4132793958791528  1.0000
  C   C235      1.0  0.4749775258400065  0.7433032797720625  0.43008295595342366  1.0000
  C   C236      1.0  0.4728176575761972  0.7465437807867065  0.40666574978578085  1.0000
  C   C237      1.0  0.4535735674891604  0.7629454962652317  0.40186473262170347  1.0000
  O   O77       1.0  0.45457546297579393  0.7819627119028599  0.4147327650206592  1.0000
  O   O78       1.0  0.4374445688638858  0.7568371129881613  0.3850285125667245  1.0000
  N   N76       1.0  0.43799347814925105  0.7003445862663242  0.44646193627849046  1.0000
  C   C238      1.0  0.4300274173095215  0.6761864451486097  0.44069744968352675  1.0000
  C   C239      1.0  0.40142370221641765  0.6705975048279535  0.43494929307891717  1.0000
  O   O79       1.0  0.3926725918117655  0.6509063326996866  0.42585348845173643  1.0000
  C   C240      1.0  0.4399148843335094  0.6655243246569904  0.4593952886388623  1.0000
  C   C241      1.0  0.46814783957545025  0.6633354851095139  0.4612405775488648  1.0000
  C   C242      1.0  0.4766891339284975  0.656175626018122  0.4389828006963563  1.0000
  O   O80       1.0  0.46942335863336343  0.6366192737414471  0.427584467429261  1.0000
  O   O81       1.0  0.49054761911796585  0.6701604287497304  0.4327937343521885  1.0000
  N   N77       1.0  0.386804477180104  0.6872279072763013  0.4396033403298085  1.0000
  C   C243      1.0  0.35943608036394553  0.682432074952879  0.4365169721529016  1.0000
  C   C244      1.0  0.3481572303277614  0.6759813154329767  0.41234858642897454  1.0000
  O   O82       1.0  0.35804971599780694  0.6837536949518055  0.3986967144930265  1.0000
  C   C245      1.0  0.3475553880580741  0.7028629648024397  0.44825823521743097  1.0000
  C   C246      1.0  0.35324494511035665  0.7070799495893931  0.4729001906616242  1.0000
  O   O83       1.0  0.3597442273309292  0.7263035749605364  0.4842168739769495  1.0000
  N   N78       1.0  0.35058440526464163  0.6891414972316762  0.48131013569393666  1.0000
  N   N79       1.0  0.32696977541915057  0.6616502538882221  0.407286289419233  1.0000
  C   C247      1.0  0.314002992563332  0.6542486326272788  0.38478356271141445  1.0000
  C   C248      1.0  0.30447772910552784  0.6740896791817522  0.37661856753441203  1.0000
  O   O84       1.0  0.3086324909372442  0.6772053950985438  0.35878621806783884  1.0000
  C   C249      1.0  0.2920335605132707  0.6362599922056895  0.38319955364707603  1.0000
  N   N80       1.0  0.29136680329813236  0.6875941358995581  0.38947026994301387  1.0000
  C   C250      1.0  0.28348550518343396  0.7087746593435981  0.38537144236415866  1.0000
  C   C251      1.0  0.2873328613980136  0.7262670094633384  0.407122989515693  1.0000
  O   O85       1.0  0.2931452364841376  0.7209040059047407  0.42451442924270805  1.0000
  C   C252      1.0  0.25604804021640243  0.7058505604180101  0.37420172896201936  1.0000
  S   S11       1.0  0.23439201261350429  0.6904729095196521  0.38656353166000096  1.0000
  N   N81       1.0  0.28381148630859826  0.7473507871092371  0.40627383001728473  1.0000
  C   C253      1.0  0.2931893635409933  0.7661029212686602  0.42489001902085016  1.0000
  C   C254      1.0  0.2721130676105793  0.7799128364251651  0.43222218468979834  1.0000
  O   O86       1.0  0.25433042834749126  0.7823275224444959  0.4189132425512844  1.0000
  C   C255      1.0  0.31449814365757806  0.7808377810087015  0.41940314226190456  1.0000
  C   C256      1.0  0.33730269041545097  0.7686940459360161  0.41553293454800544  1.0000
  N   N82       1.0  0.3428360922503209  0.7599708428580891  0.3949244867212514  1.0000
  C   C257      1.0  0.35526764497827484  0.762836017798276  0.42960938623315753  1.0000
  C   C258      1.0  0.3635682458044221  0.7497131629224885  0.3964595058145278  1.0000
  N   N83       1.0  0.37147240942216886  0.7512166646198405  0.417329233486946  1.0000
  N   N84       1.0  0.2742376642958894  0.7884564938212133  0.4536961220053146  1.0000
  C   C259      1.0  0.25703646787451345  0.8032882658290569  0.4641473158318776  1.0000
  C   C260      1.0  0.27095379535975556  0.8260004587423064  0.47726029808614345  1.0000
  O   O87       1.0  0.26061493455386536  0.8386146429543657  0.4908305200703214  1.0000
  C   C261      1.0  0.24308915670355954  0.7916070101035131  0.47887696713118993  1.0000
  S   S12       1.0  0.23218349519398218  0.7618831527955822  0.46653149442356234  1.0000
  N   N85       1.0  0.2944814638635833  0.8310997844247169  0.4741575999188826  1.0000
  C   C262      1.0  0.3074432555712401  0.8537281782674077  0.48263286491261104  1.0000
  C   C263      1.0  0.2952829819836749  0.869735174003089  0.4701567522821514  1.0000
  O   O88       1.0  0.2828909527093764  0.8625710802188759  0.45178551313389603  1.0000
  C   C264      1.0  0.33536294347001483  0.8536534956468061  0.4802813463016344  1.0000
  O   O89       1.0  0.3383964831432326  0.8409768998870634  0.45924831872567623  1.0000
  N   N86       1.0  0.2987686453101549  0.8916804949051839  0.4801180463980943  1.0000
  C   C265      1.0  0.28711596220824415  0.9071792766850227  0.4684421032949809  1.0000
  C   C266      1.0  0.30166926347237166  0.9116559854864027  0.45052810387663766  1.0000
  O   O90       1.0  0.29146456868552695  0.9205149173125391  0.4364843121721936  1.0000
  C   C267      1.0  0.28373716887024336  0.9292983955007676  0.4844618238322596  1.0000
  C   C268      1.0  0.2743146843356295  0.9262659790611242  0.5058051212249438  1.0000
  C   C269      1.0  0.24900187728810422  0.911242680536709  0.5025227931637889  1.0000
  O   O91       1.0  0.23190851306702656  0.9186911497701458  0.5129739869903519  1.0000
  O   O92       1.0  0.24623594856122025  0.8918374635209371  0.49014466047545324  1.0000
  N   N87       1.0  0.3247439580166818  0.9049932016404855  0.4501851740792036  1.0000
  C   C270      1.0  0.33843004492015877  0.9055491961677786  0.43191191487307223  1.0000
  C   C271      1.0  0.32882537229894326  0.8862878488656918  0.41184235672800035  1.0000
  O   O93       1.0  0.33831382209116717  0.8856305076141818  0.39503879665372943  1.0000
  C   C272      1.0  0.3667068529908481  0.9050657384165404  0.43909711062883433  1.0000
  C   C273      1.0  0.3742115599444214  0.8810080496060279  0.437905021332992  1.0000
  O   O94       1.0  0.35862122327610046  0.8660107634173312  0.44061579973175674  1.0000
  O   O95       1.0  0.39618784484812103  0.877203118156808  0.434769663185023  1.0000
  N   N88       1.0  0.31064694091445233  0.870600466838299  0.4130997659852587  1.0000
  C   C274      1.0  0.3028602605916622  0.8508811555285242  0.3948265067791274  1.0000
  C   C275      1.0  0.28791373805510434  0.8571217561047539  0.37554078817104775  1.0000
  O   O96       1.0  0.28991435015161093  0.846970400013148  0.35672863928323423  1.0000
  C   C276      1.0  0.28738426579372855  0.8324170461466858  0.4017830826699334  1.0000
  S   S13       1.0  0.2561841685614673  0.8385787198179  0.407122989515693  1.0000
  N   N89       1.0  0.27289459630655066  0.873618014356174  0.37972126570167297  1.0000
  C   C277      1.0  0.2590400177628317  0.8808865430841283  0.3616602963701437  1.0000
  C   C278      1.0  0.2768199229921649  0.8920171952245181  0.3494128036046401  1.0000
  O   O97       1.0  0.2710803761861374  0.8903580809243233  0.3296371852859403  1.0000
  C   C279      1.0  0.23984025692083558  0.8968231145943691  0.36987428151820806  1.0000
  C   C280      1.0  0.2144325742562925  0.8840772222681538  0.37046216117095226  1.0000
  C   C281      1.0  0.19819377064520183  0.8985884765591015  0.38471824274999844  1.0000
  C   C282      1.0  0.2004703850486743  0.8747823802047043  0.3473552248200355  1.0000
  N   N90       1.0  0.2985809791836172  0.9030519769850238  0.36066416695854936  1.0000
  C   C283      1.0  0.3170517710229753  0.9127198326242946  0.3494781235660561  1.0000
  C   C284      1.0  0.33299131760675865  0.8948294986653605  0.33902692973949305  1.0000
  O   O98       1.0  0.3404036269112964  0.8955309758635425  0.32153751007035397  1.0000
  C   C285      1.0  0.3340533531835755  0.9323478080768246  0.3654651841226268  1.0000
  O   O99       1.0  0.3202204295285429  0.944841441883853  0.3807337251036213  1.0000
  N   N91       1.0  0.3386612791578791  0.8788817551508197  0.3496904134406582  1.0000
  C   C286      1.0  0.3525904885560156  0.8600444087272272  0.34098652858197365  1.0000
  C   C287      1.0  0.3356785089427587  0.8407463576797751  0.3246728682183229  1.0000
  O   O100      1.0  0.34541470259687934  0.8253003477019121  0.3134704948354756  1.0000
  C   C288      1.0  0.3663267873563383  0.8513754284579731  0.3598966574119112  1.0000
  C   C289      1.0  0.3941181469642396  0.8617423393234009  0.36660828344740715  1.0000
  C   C290      1.0  0.3984345347395613  0.8842717986378793  0.3841466930876083  1.0000
  N   N92       1.0  0.42461336057532106  0.8944026475128773  0.3862695918336289  1.0000
  C   C291      1.0  0.4321724806395916  0.9165667301044444  0.3908256591423962  1.0000
  N   N93       1.0  0.4164764563070295  0.9320063119558323  0.39505512664408343  1.0000
  N   N94       1.0  0.45572078730583404  0.9233523196733283  0.39133188884337033  1.0000
  N   N95       1.0  0.3107447849650767  0.8413598058181591  0.32310518914433844  1.0000
  C   C292      1.0  0.29306818781521593  0.8249225714339365  0.30692216870351974  1.0000
  C   C293      1.0  0.29261151916988365  0.801137681653151  0.3104004566489227  1.0000
  O   O101      1.0  0.2938068048714017  0.7849157640972151  0.2950176057354502  1.0000
  N   N96       1.0  0.29098618991203606  0.7987048626157018  0.33064964468788866  1.0000
  C   C294      1.0  0.290941147664606  0.7763920951411785  0.335287361948426  1.0000
  C   C295      1.0  0.2758708115767841  0.7742777811518072  0.35364227110632734  1.0000
  O   O102      1.0  0.28194949252858825  0.7615163822466738  0.3654815141129808  1.0000
  C   C296      1.0  0.3181521276895865  0.7706432932296835  0.34093753861091164  1.0000
  C   C297      1.0  0.3338750772572572  0.7884820592250665  0.35978234747943316  1.0000
  O   O103      1.0  0.32323507601094603  0.7999877231304927  0.37418539897166536  1.0000
  O   O104      1.0  0.35728905028387425  0.7908769230896187  0.3603538971418233  1.0000
  N   N97       1.0  0.2565063403077226  0.7865771288273351  0.3564183694665082  1.0000
  C   C298      1.0  0.24017835582999714  0.7830322447402706  0.3721931401484768  1.0000
  C   C299      1.0  0.2255164601433312  0.7595622819706485  0.36463235461457255  1.0000
  O   O105      1.0  0.22156781256895983  0.7494785856015439  0.3452323260740149  1.0000
  C   C300      1.0  0.22137263496785814  0.8007574452312083  0.37516519839290563  1.0000
  S   S14       1.0  0.23413273183614305  0.829478206771476  0.37725543715821824  1.0000
  N   N98       1.0  0.2176324439470284  0.7508339353032825  0.38026015538335517  1.0000
  C   C301      1.0  0.1976987504432022  0.7321456638826679  0.3750672184507816  1.0000
  C   C302      1.0  0.17330097324045557  0.7402077050230527  0.36595508383324693  1.0000
  O   O106      1.0  0.16968399771947987  0.760426304195141  0.3708214209587403  1.0000
  C   C303      1.0  0.19405743788257449  0.7234720777993282  0.39541438643187155  1.0000
  S   S15       1.0  0.22239509803624072  0.7150193469573176  0.4097031279916257  1.0000
  N   N99       1.0  0.15634919613608778  0.7242631114278902  0.352548161752609  1.0000
  C   C304      1.0  0.1338173554316173  0.7308980130365923  0.34106817853374366  1.0000
  C   C305      1.0  0.11574334097951104  0.740834727954576  0.3563040595340301  1.0000
  O   O107      1.0  0.09969825060746049  0.752218176205078  0.34983738335384423  1.0000
  C   C306      1.0  0.11956370574376225  0.710930159308284  0.32338279898035655  1.0000
  O   O108      1.0  0.11044818180005118  0.6935506704479748  0.3331154732313434  1.0000
  C   C307      1.0  0.1367521568400045  0.701390191097137  0.30749371836590983  1.0000
  N   N100      1.0  0.11791184787661245  0.737308914188169  0.376389947669456  1.0000
  C   C308      1.0  0.10060191933055923  0.7463505890202415  0.3912665688819544  1.0000
  C   C309      1.0  0.11232523224175114  0.7676934957245136  0.40833140880188934  1.0000
  O   O109      1.0  0.10221422933720348  0.7743624364574381  0.42471038912695613  1.0000
  C   C310      1.0  0.09121024827703796  0.7282925045612758  0.4023709623226776  1.0000
  C   C311      1.0  0.11178308666185685  0.7226633061606799  0.4181620629950002  1.0000
  O   O110      1.0  0.13425697741983217  0.7258927969371023  0.41613714419110365  1.0000
  N   N101      1.0  0.10429006656614724  0.7142299025836197  0.43411646357086286  1.0000
  N   N102      1.0  0.13297646460107015  0.7787809065196739  0.4044448710976362  1.0000
  C   C312      1.0  0.14819589886540294  0.7968397236295758  0.4213300811236771  1.0000
  C   C313      1.0  0.13396769954378793  0.8175559881151814  0.4274048375353669  1.0000
  O   O111      1.0  0.13378618139080758  0.8270148169889018  0.44680486607592457  1.0000
  C   C314      1.0  0.17294692807884166  0.8030599215745766  0.4135406757248169  1.0000
  C   C315      1.0  0.1861145759485004  0.8262834687714545  0.42487368903049616  1.0000
  C   C316      1.0  0.1969808072411489  0.831224869352387  0.44667422615309255  1.0000
  C   C317      1.0  0.18800477550858763  0.8432154613833619  0.4136713156476489  1.0000
  C   C318      1.0  0.20910801531937465  0.8524782911021535  0.45702744003753154  1.0000
  C   C319      1.0  0.20014218085634203  0.8645023989616005  0.4238285696478399  1.0000
  C   C320      1.0  0.21063612308043608  0.869045506466357  0.4454821368572502  1.0000
  O   O112      1.0  0.22269229390057516  0.890267087229137  0.4555087509346091  1.0000
  N   N103      1.0  0.1220422669418881  0.8250123415542288  0.41102585721030016  1.0000
  C   C321      1.0  0.10697688596218514  0.8440232575375283  0.41559825450942145  1.0000
  C   C322      1.0  0.0850106801615976  0.838625496314519  0.42715988768005686  1.0000
  O   O113      1.0  0.07764715840597926  0.8536981454820639  0.44069744968352675  1.0000
  C   C323      1.0  0.09722138960794015  0.850578304530268  0.39440192702992327  1.0000
  C   C324      1.0  0.07491413694018267  0.8344578527635305  0.37942732587530087  1.0000
  C   C325      1.0  0.08288803485422376  0.8125035438836248  0.3658571038911229  1.0000
  O   O114      1.0  0.10331450618782406  0.8059792863983605  0.3710337108333424  1.0000
  N   N104      1.0  0.06661974936773585  0.8012214901308746  0.34838401421233783  1.0000
  N   N105      1.0  0.07433420655677478  0.8172893412688794  0.4220975906703153  1.0000
  C   C326      1.0  0.05204141138407339  0.8112168004296637  0.431275045249266  1.0000
  C   C327      1.0  0.059122812428098005  0.8119412399259821  0.4553617810214231  1.0000
  O   O115      1.0  0.04667101474425308  0.821528912529123  0.4691932828512651  1.0000
  C   C328      1.0  0.039257818765837484  0.7877225810488482  0.4184560028213723  1.0000
  C   C329      1.0  0.018685891600972802  0.7799109998176007  0.43022992586660974  1.0000
  C   C330      1.0  0.02912879583783565  0.7879585384538992  0.3948591667598354  1.0000
  N   N106      1.0  0.07953164288802453  0.8020784557944787  0.4606690278864746  1.0000
  C   C331      1.0  0.08702854088538153  0.7997670578767356  0.4827961648161511  1.0000
  C   C332      1.0  0.1029001632016761  0.8210580873804744  0.49680729653988714  1.0000
  O   O116      1.0  0.09937566856273615  0.8289767155150599  0.5157664153408867  1.0000
  C   C333      1.0  0.10120443512252741  0.7787339964784702  0.48193067532738887  1.0000
  C   C334      1.0  0.11143053895022415  0.7768441966503822  0.5046293619194555  1.0000
  C   C335      1.0  0.08345481508952322  0.7576017531992918  0.4696831825618853  1.0000
  N   N107      1.0  0.1204868895759359  0.830760248679853  0.4877441518934145  1.0000
  C   C336      1.0  0.13808617701398002  0.8501865962742076  0.4999426546878561  1.0000
  C   C337      1.0  0.12993237583175876  0.8729697463002405  0.49732985623121534  1.0000
  O   O117      1.0  0.14164584173329609  0.8904480173298485  0.5093650591221168  1.0000
  C   C338      1.0  0.16443545397623746  0.8478729193361892  0.4932800186234222  1.0000
  S   S16       1.0  0.17893405108564378  0.8237469284424432  0.49928945507369593  1.0000
  N   N108      1.0  0.110462646525834  0.8735816766596349  0.4821266352116369  1.0000
  C   C339      1.0  0.10275178397022075  0.895544597692505  0.48018336635951037  1.0000
  C   C340      1.0  0.07434544127387309  0.896657723813224  0.47791349770030367  1.0000
  O   O118      1.0  0.06560690551569476  0.9126204790168546  0.4715448014622418  1.0000
  C   C341      1.0  0.11288414998783328  0.9025249635791356  0.4609629677128467  1.0000
  C   C342      1.0  0.14017979662394328  0.9127705342078968  0.4670540541148905  1.0000
  C   C343      1.0  0.15120488608699872  0.9182703226977973  0.44802961535247493  1.0000
  C   C344      1.0  0.174560392020575  0.9351766645036579  0.4563742404233714  1.0000
  N   N109      1.0  0.1904250096609042  0.9295540702907905  0.4752353792822469  1.0000
  N   N110      1.0  0.05959026314932186  0.8803758022020262  0.482534884970487  1.0000
  C   C345      1.0  0.03281502098252988  0.8818771723500066  0.48354734437243535  1.0000
  C   C346      1.0  0.015209278980400424  0.8782216157335824  0.462024417085857  1.0000
  O   O119      1.0  0.992591323171356  0.8806292835583954  0.46244899683506113  1.0000
  N   N111      1.0  0.024481886531186627  0.872711283489367  0.44329391814981356  1.0000
  C   C347      1.0  0.007951918890199392  0.867491673937811  0.4223588705159794  1.0000
  C   C348      1.0  0.9919140645022378  0.8447574511409538  0.41868462268632833  1.0000
  O   O120      1.0  0.9978203272742693  0.8306689130070363  0.4290215065804134  1.0000
  C   C349      1.0  0.023385768833604204  0.8668030388818325  0.403775341493122  1.0000
  C   C350      1.0  0.04200489933813714  0.8875739973636  0.40689436965073694  1.0000
  C   C351      1.0  0.050281965327397295  0.8900473218336892  0.3855510722580527  1.0000
  O   O121      1.0  0.04307208853444389  0.8745123264947312  0.36876384217413577  1.0000
  O   O122      1.0  0.06383623871165824  0.907552147677951  0.3854530923159286  1.0000
  N   N112      1.0  0.9714280677567954  0.8412082420708639  0.403742681512414  1.0000
  C   C352      1.0  0.9553397269179545  0.8197746798675938  0.3982884647341764  1.0000
  C   C353      1.0  0.9650492818914943  0.8021203080172931  0.38091335499751533  1.0000
  O   O123      1.0  0.9792870211407334  0.8076555631202016  0.3687801721644898  1.0000
  C   C354      1.0  0.9282475265041322  0.8232004647407525  0.39017245952823604  1.0000
  O   O124      1.0  0.9275924834908436  0.8326081635444786  0.3716542504667946  1.0000
  N   N113      1.0  0.9572121824922456  0.7805819636357851  0.379933555576275  1.0000
  C   C355      1.0  0.9605226901178614  0.7623844441039769  0.3614316765051876  1.0000
  C   C356      1.0  0.9449192615026359  0.7652629227822638  0.3406599287748936  1.0000
  O   O125      1.0  0.9247376704045072  0.7735940278529646  0.34123147843728374  1.0000
  C   C357      1.0  0.9523107004608241  0.7391249211090879  0.3651712442962547  1.0000
  C   C358      1.0  0.9717723359484244  0.7303277061772133  0.37919870601034483  1.0000
  N   N114      1.0  0.994042748147903  0.72364422475826  0.37248707997484887  1.0000
  C   C359      1.0  0.9721659273733609  0.7267888790953596  0.39949688402037276  1.0000
  C   C360      1.0  0.007368980800875713  0.7165233198421586  0.38809855075327737  1.0000
  N   N115      1.0  0.9945098487399064  0.7182584680722833  0.40467349096259225  1.0000
  N   N116      1.0  0.9543099259886709  0.7582269494836995  0.3220763997520361  1.0000
  C   C361      1.0  0.9405202178348794  0.7608536645326275  0.3016149218384681  1.0000
  C   C362      1.0  0.9138613944970987  0.7487195122093779  0.2973201343753649  1.0000
  O   O126      1.0  0.8958518525671999  0.7571811834400922  0.2892204591597785  1.0000
  C   C363      1.0  0.9550638925837067  0.7524128908229707  0.28267213302782257  1.0000
  C   C364      1.0  0.9397316426608598  0.7494342549637171  0.2603000462428361  1.0000
  C   C365      1.0  0.9374181922828972  0.7653409125691679  0.2483464933037046  1.0000
  C   C366      1.0  0.9248630540151306  0.7292661769792511  0.2473666938824643  1.0000
  N   N117      1.0  0.92202608742544  0.7563760282047289  0.22875050487889884  1.0000
  C   C367      1.0  0.9140578232174046  0.7342499720775055  0.22772171548659656  1.0000
  C   C368      1.0  0.9198628529252146  0.707451959828095  0.25037141210760117  1.0000
  C   C369      1.0  0.8984658025831127  0.7182332081239702  0.2111794352579897  1.0000
  C   C370      1.0  0.9043709655374089  0.6914597570191529  0.23386179185970235  1.0000
  C   C371      1.0  0.8938284267305007  0.6969851534295753  0.2145434132709147  1.0000
  N   N118      1.0  0.9108020945742412  0.7293327897413959  0.30354186070024075  1.0000
  C   C372      1.0  0.8862466922004816  0.7159890700326863  0.29954101306350955  1.0000
  C   C373      1.0  0.8678006512720712  0.7275944440027858  0.31361746474866165  1.0000
  O   O127      1.0  0.8447653362342576  0.7217766263558785  0.3087347976328142  1.0000
  C   C374      1.0  0.8896569526039221  0.692440418303584  0.3037051606037807  1.0000
  C   C375      1.0  0.8976775600550022  0.6944176046463102  0.3281348261733719  1.0000
  C   C376      1.0  0.8655694607016955  0.6759273926385494  0.294495046044122  1.0000
  N   N119      1.0  0.8771469494352455  0.7438837643369305  0.3310578944467387  1.0000
  C   C377      1.0  0.8601368658880487  0.755457716030415  0.34467710640197874  1.0000
  C   C378      1.0  0.8508157661173856  0.7757041261482717  0.3370183409259505  1.0000
  O   O128      1.0  0.8330226431895805  0.7846046005913843  0.34464444642127073  1.0000
  C   C379      1.0  0.8731533634405233  0.76207053057481  0.36830660244422364  1.0000
  C   C380      1.0  0.8773823406642649  0.7413142316596252  0.37728809713892625  1.0000
  O   O129      1.0  0.8596972550523697  0.7257270735854914  0.372927989714407  1.0000
  O   O130      1.0  0.8982189041034276  0.7399934253791021  0.38791892085938334  1.0000
  N   N120      1.0  0.8616407155462529  0.7825367397509029  0.321570170051062  1.0000
  C   C381      1.0  0.8519666016149909  0.8000727595178366  0.3117395158579511  1.0000
  C   C382      1.0  0.8293567619791521  0.7902789817145809  0.294233766198458  1.0000
  O   O131      1.0  0.8278847681319377  0.7707723797926498  0.28270479300853063  1.0000
  C   C383      1.0  0.8724547112342168  0.8111755817137009  0.3017618917516542  1.0000
  C   C384      1.0  0.8961795252222362  0.8204428650720923  0.31807555211530497  1.0000
  O   O132      1.0  0.8940279917325368  0.8287751833883827  0.33750824063657064  1.0000
  O   O133      1.0  0.917119342118984  0.819259547967886  0.311461906021933  1.0000
  N   N121      1.0  0.8116613820566401  0.8040859468997285  0.2922251773849154  1.0000
  C   C385      1.0  0.7903357415336565  0.7979017057539816  0.2746867677447143  1.0000
  C   C386      1.0  0.7988559701129466  0.7969819856429233  0.2525269708343298  1.0000
  O   O134      1.0  0.818961679922613  0.8070468163429737  0.2508776418085753  1.0000
  C   C387      1.0  0.7707885013953042  0.8148192718568315  0.27824670564188736  1.0000
  C   C388      1.0  0.7651254652028843  0.8201182507261141  0.30135364199280407  1.0000
  O   O135      1.0  0.7660226431768459  0.8404149154957076  0.311363926079809  1.0000
  O   O136      1.0  0.7600646958937155  0.8038617609741848  0.30958395713122244  1.0000
  N   N122      1.0  0.7831240318763719  0.7845439641358392  0.23529883101085478  1.0000
  C   C389      1.0  0.7870567889148097  0.78523147642086  0.2131880240715323  1.0000
  C   C390      1.0  0.7866656568648116  0.8094285908970502  0.21064054557630754  1.0000
  O   O137      1.0  0.7695174772562352  0.820715231465129  0.21642136216162525  1.0000
  C   C391      1.0  0.7664357418146174  0.7699691659346577  0.19597621423841127  1.0000
  S   S17       1.0  0.75669898145498  0.7413011998987054  0.19793581308089186  1.0000
  N   N123      1.0  0.8053820263278139  0.8174402536171339  0.201855010765853  1.0000
  C   C392      1.0  0.8045589219339049  0.8383636653752007  0.19460449504867486  1.0000
  C   C393      1.0  0.8086212793213647  0.8331489994650627  0.17084435908359794  1.0000
  O   O138      1.0  0.8268329138357701  0.8232799632683375  0.16527583237288232  1.0000
  C   C394      1.0  0.8244569862106166  0.8570401177272007  0.20861562677241097  1.0000
  C   C395      1.0  0.8235153684536928  0.8793928910409535  0.20175703082372898  1.0000
  C   C396      1.0  0.8333957664951087  0.899920964397784  0.22037321982729438  1.0000
  O   O139      1.0  0.818583336635459  0.9143445370478583  0.22607238646084207  1.0000
  O   O140      1.0  0.8559449588221639  0.9016398115137724  0.229207744608811  1.0000
  N   N124      1.0  0.7913621651659557  0.8390602085235572  0.15684955735021586  1.0000
  C   C397      1.0  0.7936225059831175  0.8344559313070565  0.1337589509896531  1.0000
  C   C398      1.0  0.8179640517795481  0.8468283486459823  0.13041130296708212  1.0000
  O   O141      1.0  0.8242040090801301  0.8669050098901642  0.13980104742063484  1.0000
  C   C399      1.0  0.7708305888172213  0.8414732292929951  0.12097256854246737  1.0000
  C   C400      1.0  0.7707497268742103  0.835109585232691  0.09655923296323023  1.0000
  C   C401      1.0  0.7477747240544587  0.8415259488022815  0.08400147038100055  1.0000
  O   O142      1.0  0.7332309027411645  0.8531960182283503  0.09456697414004164  1.0000
  O   O143      1.0  0.7442119052717363  0.8346888960396535  0.0636379724095566  1.0000
  N   N125      1.0  0.8319388553276066  0.834627645260442  0.1173799706645863  1.0000
  C   C402      1.0  0.8556546286054014  0.8438773190808937  0.1122523536934288  1.0000
  C   C403      1.0  0.8502454050880859  0.8476263242896052  0.08922706729428208  1.0000
  O   O144      1.0  0.8501436528995151  0.8320322052016533  0.07292973692098531  1.0000
  C   C404      1.0  0.8764384397027934  0.8282615269354238  0.11426094250697139  1.0000
  C   C405      1.0  0.8803951644225869  0.8237855603765726  0.13707393903151607  1.0000
  C   C406      1.0  0.9011916170602291  0.8382180783033611  0.10919864549722992  1.0000
  C   C407      1.0  0.891372571801665  0.8014498733050092  0.13731888888682614  1.0000
  N   N126      1.0  0.8458178652500754  0.8684162056211264  0.08772470818171364  1.0000
  C   C408      1.0  0.8391527342155057  0.8730972781932712  0.06633242081796739  1.0000
  C   C409      1.0  0.862164235445906  0.8751609901119806  0.05478711763768601  1.0000
  O   O145      1.0  0.8605257540625122  0.8670355811226158  0.03492984936721621  1.0000
  C   C410      1.0  0.825676830904602  0.8944046516966706  0.06883090934213011  1.0000
  C   C411      1.0  0.8023432356277523  0.8924987268157  0.07988631281179136  1.0000
  C   C412      1.0  0.7892871734026438  0.913985517528832  0.08284204106586622  1.0000
  C   C413      1.0  0.7637759200586384  0.9102195165525628  0.0906477764550805  1.0000
  N   N127      1.0  0.7447886299951407  0.9238460320472246  0.08209086150958199  1.0000
  N   N128      1.0  0.8836089486130873  0.8858400301917008  0.06672434058646351  1.0000
  C   C414      1.0  0.9070002280267626  0.8873170295515163  0.05738358610397277  1.0000
  C   C415      1.0  0.9273430515673465  0.8787989418940473  0.07154168774089491  1.0000
  O   O146      1.0  0.9256314513752487  0.8794152305303994  0.09089272631039057  1.0000
  C   C416      1.0  0.9150397111268758  0.9118431025398954  0.056093516866006395  1.0000
  C   C417      1.0  0.8944445830446252  0.9208430396949812  0.04294787463103255  1.0000
  C   C418      1.0  0.92205645019986  0.9272890030443692  0.07887385340984306  1.0000
  N   N129      1.0  0.9470841744038964  0.8708852288105298  0.06259285302690029  1.0000
  C   C419      1.0  0.9684475662036715  0.8652456578288622  0.07648967481815835  1.0000
  C   C420      1.0  0.9817250800722114  0.8866376059392814  0.09236242544225098  1.0000
  O   O147      1.0  0.988407872389665  0.9032835149665471  0.08576510933923306  1.0000
  C   C421      1.0  0.9855566836470949  0.8547448740059741  0.06024133441592361  1.0000
  C   C422      1.0  0.9699306190138716  0.8504210610780327  0.03814685746695515  1.0000
  C   C423      1.0  0.9519579042150863  0.8679732058978491  0.03995948639624968  1.0000
  N   N130      1.0  0.9853744280260637  0.8861755404145009  0.11339545301820914  1.0000
  C   C424      1.0  0.9996235324442042  0.9048468397698972  0.13029699303460407  1.0000
  C   C425      1.0  0.026283711999171226  0.8983189423634365  0.13532663006363757  1.0000
  O   O148      1.0  0.03268747343564239  0.8902848786384808  0.15110140074560616  1.0000
  C   C426      1.0  0.9862157588586393  0.9097565278359898  0.15044820113144597  1.0000
  C   C427      1.0  0.9588842040403806  0.9146579464644605  0.14496132437250037  1.0000
  C   C428      1.0  0.9440953573740436  0.916672593090255  0.16411640305774797  1.0000
  O   O149      1.0  0.9554546088848294  0.9165889937832892  0.18250397219635733  1.0000
  O   O150      1.0  0.9210142341569556  0.9183361943239815  0.16068710508340697  1.0000
  N   N131      1.0  0.04197095415729504  0.9016772911644543  0.12131549833990146  1.0000
  C   C429      1.0  0.06724834142973632  0.8947365077030994  0.12177273806981359  1.0000
  C   C430      1.0  0.08697850697428502  0.9154513067024049  0.1283047342114155  1.0000
  O   O151      1.0  0.0815924801438933  0.933976747562066  0.12530001598627863  1.0000
  C   C431      1.0  0.07089209744443949  0.8805021396637963  0.09936799130411904  1.0000
  S   S18       1.0  0.05167252427401926  0.8532817633798627  0.0896189870627782  1.0000
  N   N132      1.0  0.11010486092715496  0.9128407262979521  0.13731888888682614  1.0000
  C   C432      1.0  0.1306056453922096  0.9313952722320104  0.14190761617630146  1.0000
  C   C433      1.0  0.134826378490274  0.9390580829936797  0.12139714829167148  1.0000
  O   O152      1.0  0.12898296249968505  0.9263566691450505  0.10297691917235409  1.0000
  C   C434      1.0  0.1536411310294299  0.9209415884378985  0.15072581096746407  1.0000
  C   C435      1.0  0.1426815993797876  0.9021064211527847  0.15929905590331656  1.0000
  C   C436      1.0  0.11848097575406004  0.8927856190463066  0.14429179476798618  1.0000
  N   N133      1.0  0.1458879330012039  0.9602096345390511  0.12505506613096856  1.0000
  C   C437      1.0  0.14723358388600571  0.9715225206848016  0.10725537664510335  1.0000
  C   C438      1.0  0.16024676788521203  0.95820310047281  0.08925972727499008  1.0000
  O   O153      1.0  0.15232805333695026  0.9569950414591747  0.06984336874407841  1.0000
  C   C439      1.0  0.16074154975759816  0.9954976379655196  0.11625320133015997  1.0000
  N   N134      1.0  0.18004524387771206  0.9481203936989344  0.09520384376384783  1.0000
  C   C440      1.0  0.19401588631735223  0.9364896687526056  0.07877587346771903  1.0000
  C   C441      1.0  0.18327808543820437  0.9126982033744413  0.06634875080832138  1.0000
  O   O154      1.0  0.19495562166646566  0.90206218098959  0.05253357896883335  1.0000
  N   N135      1.0  0.16183489285231792  0.9037869899325751  0.07105178803027476  1.0000
  C   C442      1.0  0.14994473829506824  0.8814131289257645  0.058836955245479196  1.0000
  C   C443      1.0  0.13880184496511175  0.8825842940220344  0.03589331879810249  1.0000
  O   O155      1.0  0.12573932520169964  0.8978038866431857  0.03308456045721367  1.0000
  C   C444      1.0  0.12903571123268298  0.873031117251002  0.07030060847399054  1.0000
  C   C445      1.0  0.1383288705008935  0.8627429380461508  0.08904743740038804  1.0000
  C   C446      1.0  0.15871992300869137  0.8733523866175908  0.10474055813058661  1.0000
  C   C447      1.0  0.12597583942769605  0.8427357921307919  0.09131730605959468  1.0000
  C   C448      1.0  0.16692336102842334  0.8640349436012488  0.12203401791547766  1.0000
  C   C449      1.0  0.13405039974531355  0.8333314430100371  0.1087903957383798  1.0000
  C   C450      1.0  0.15452053494178453  0.8440119818699894  0.12410792669043627  1.0000
  N   N136      1.0  0.14383373994948645  0.8665837645947707  0.019416358530911674  1.0000
  C   C451      1.0  0.13358235272345645  0.8661257292956362  0.996864641852031  1.0000
  C   C452      1.0  0.10912874084762232  0.8502918797057082  0.9886669866943207  1.0000
  O   O156      1.0  0.09401538464726863  0.8536661727947729  0.9735290856361583  1.0000
  C   C453      1.0  0.1533115801672482  0.8598566280082268  0.9814328009674965  1.0000
  C   C454      1.0  0.1762471973267687  0.8777150876862424  0.9877198472537884  1.0000
  C   C455      1.0  0.1616330865484829  0.8367271572847654  0.9817920607552847  1.0000
  N   N137      1.0  0.1043889473048027  0.8336970104582327  0.9985792908392016  1.0000
  C   C456      1.0  0.08116158408880102  0.8183850494990832  0.993010764128486  1.0000
  C   C457      1.0  0.07687023974862835  0.8112275217206563  0.013635541945593984  1.0000
  O   O157      1.0  0.09528760112468107  0.8106983579510669  0.027385393823666004  1.0000
  C   C458      1.0  0.08300548976140841  0.7976017819468832  0.9744925550670446  1.0000
  C   C459      1.0  0.1036389254653182  0.7829939959165623  0.9800937417584682  1.0000
  C   C460      1.0  0.10923857913588603  0.7663604484368464  0.9597465737773783  1.0000
  N   N138      1.0  0.12305930622550187  0.7767661518959144  0.9453761822658541  1.0000
  C   C461      1.0  0.1478487234431285  0.7828262788948908  0.9490504300955052  1.0000
  N   N139      1.0  0.1617395095788833  0.7798299381350551  0.9668337895910163  1.0000
  N   N140      1.0  0.15880857788722272  0.7920061804422266  0.934908658448937  1.0000
  N   N141      1.0  0.05325108302855451  0.806473308193667  0.01680356007427091  1.0000
  C   C462      1.0  0.048408732832852  0.7977671721747442  0.03576267887527045  1.0000
  C   C463      1.0  0.05804910460831671  0.7747552400006744  0.03408068986880796  1.0000
  O   O158      1.0  0.05374205840462336  0.7601188437857849  0.016542280228606834  1.0000
  C   C464      1.0  0.019542640238653836  0.7960417398697843  0.03411334984951597  1.0000
  C   C465      1.0  0.01007627088281131  0.7937692726094202  0.01074513365293514  1.0000
  C   C466      1.0  0.029692004509812724  0.8072268719475678  0.0023025286399146728  1.0000
  N   N142      1.0  0.07212305886339598  0.7711312292450011  0.05145579960546903  1.0000
  C   C467      1.0  0.08219004482372926  0.7492689032866545  0.05023105032891868  1.0000
  C   C468      1.0  0.06095351163690217  0.7302980264365166  0.04727532207484381  1.0000
  O   O159      1.0  0.04013892553172003  0.7339890592575414  0.052598898930249376  1.0000
  C   C469      1.0  0.09916273987222979  0.7527008973395101  0.07224387732611712  1.0000
  C   C470      1.0  0.10500676447557962  0.7780880139906745  0.08063749236807556  1.0000
  C   C471      1.0  0.08147261254214079  0.7874914638064043  0.07242350722001116  1.0000
  N   N143      1.0  0.06655707733711216  0.7096687156444306  0.038440797293327236  1.0000
  C   C472      1.0  0.04929028201087948  0.6892595225547278  0.03532176913571232  1.0000
  C   C473      1.0  0.060930038007507556  0.6738370982369761  0.04882667115847427  1.0000
  O   O160      1.0  0.08251277996990257  0.668440621735431  0.04716101214236578  1.0000
  C   C474      1.0  0.04351539286824181  0.6771161681948994  0.01081045361435116  1.0000
  C   C475      1.0  0.027687172679402346  0.654003365003256  0.004686707231599369  1.0000
  C   C476      1.0  0.00409485926679567  0.6556773102277041  0.015987060556570672  1.0000
  C   C477      1.0  0.02052077880821539  0.6452115506051133  0.9798324619128042  1.0000
  N   N144      1.0  0.04681530312057916  0.6665797938060113  0.06210295331628015  1.0000
  C   C478      1.0  0.054852957302247075  0.6502603643226379  0.0745790659467398  1.0000
  C   C479      1.0  0.03598893421455995  0.6291741362987927  0.06721424029708364  1.0000
  O   O161      1.0  0.013364888800670317  0.6303490126077057  0.0687655893807141  1.0000
  C   C480      1.0  0.05728237306226382  0.660030903700279  0.09933533132341103  1.0000
  C   C481      1.0  0.07633003586388304  0.681146798276214  0.10642254713704911  1.0000
  C   C482      1.0  0.06520196813099759  0.6420786339003046  0.11205639380918075  1.0000
  C   C483      1.0  0.07824388371581378  0.692901023598931  0.13049295291885213  1.0000
  N   N145      1.0  0.045149278970953825  0.6099699190756391  0.058820625255125186  1.0000
  C   C484      1.0  0.029568435389929613  0.5882579861356669  0.05171707945113311  1.0000
  C   C485      1.0  0.03382953462913113  0.5754277855538894  0.06963107886947635  1.0000
  O   O162      1.0  0.05505035306691488  0.570500549649711  0.07547721541621005  1.0000
  C   C486      1.0  0.0355986301707961  0.5745767672376788  0.029883882347828735  1.0000
  C   C487      1.0  0.031151535383257524  0.5880305791837263  0.012361802697981613  1.0000
  C   C488      1.0  0.018908377445567812  0.552231640184001  0.022812996524544667  1.0000
  C   C489      1.0  0.05215648679839452  0.5885367281780614  0.9993794603665478  1.0000
  N   N146      1.0  0.013901135280094314  0.5706991656522472  0.07892284338090506  1.0000
  C   C490      1.0  0.014906775242682462  0.5591065241665337  0.09678785282818628  1.0000
  C   C491      1.0  0.0008739758326900775  0.5356560647231158  0.08698985861578343  1.0000
  O   O163      1.0  0.9776833770388575  0.5328523258461304  0.08444238012055869  1.0000
  C   C492      1.0  0.002847951758489386  0.5723160234988588  0.11573064163883182  1.0000
  C   C493      1.0  0.00786550728008642  0.5645201961992297  0.13669834925337396  1.0000
  C   C494      1.0  0.9970413554109064  0.5437089749339402  0.13844565822125246  1.0000
  C   C495      1.0  0.023020207190902035  0.5783038943684127  0.15477564857525722  1.0000
  C   C496      1.0  0.001857803996626721  0.5367484834947779  0.15787834674251813  1.0000
  C   C497      1.0  0.0277954464770558  0.5716515686901888  0.17425732706758493  1.0000
  C   C498      1.0  0.017139433727025408  0.5507587560831692  0.17580867615121537  1.0000
  N   N147      1.0  0.014477559143560238  0.5188205562614745  0.08091510220409365  1.0000
  C   C499      1.0  0.0020233464786631353  0.49657251283327003  0.06920649912027223  1.0000
  C   C500      1.0  0.0020270703412585476  0.48073312953388136  0.0845403600626827  1.0000
  O   O164      1.0  0.020728457110032794  0.4810020174029441  0.09812691203721469  1.0000
  C   C501      1.0  0.01494375987726908  0.48683476604032966  0.04961051069546649  1.0000
  O   O165      1.0  0.03954434679685849  0.48229757747704494  0.05689368639335263  1.0000
  N   N148      1.0  0.9806954381167943  0.4674111208802042  0.08274406112374219  1.0000
  C   C502      1.0  0.9768120662456536  0.45265101004573033  0.09739206247128447  1.0000
  C   C503      1.0  0.970091875723851  0.4286794185092373  0.08344625070896439  1.0000
  O   O166      1.0  0.953543072140991  0.42449308516602013  0.06719791030672964  1.0000
  C   C504      1.0  0.9559522431515888  0.45971423281237  0.11132154424325054  1.0000
  C   C505      1.0  0.9656778783051677  0.4802918471687586  0.12987241328539997  1.0000
  C   C506      1.0  0.9333055173281256  0.4646313197858373  0.09709812264491237  1.0000
  N   N149      1.0  0.9830792865855968  0.4130999779866252  0.08950467713030015  1.0000
  C   C507      1.0  0.9792736992328707  0.3900130063658644  0.07660398475063639  1.0000
  C   C508      1.0  0.9568298692364006  0.37736057674268314  0.08266241117197216  1.0000
  O   O167      1.0  0.955633818168706  0.3776112507105883  0.1019317997896978  1.0000
  C   C509      1.0  0.003087364676471331  0.37859692729674027  0.0804252024934735  1.0000
  C   C510      1.0  0.004431999368207765  0.3587580314748238  0.0622662532198202  1.0000
  O   O168      1.0  0.9865959034225985  0.34348841255587864  0.05759587597857484  1.0000
  O   O169      1.0  0.023245944484666374  0.3585257045838047  0.05266421889166539  1.0000
  N   N150      1.0  0.9388434374494101  0.36669577281559185  0.06628343084690537  1.0000
  C   C511      1.0  0.9180380989796401  0.3520940580856567  0.06999033865726445  1.0000
  C   C512      1.0  0.8987189089537801  0.36436752660119487  0.08212352149029  1.0000
  O   O170      1.0  0.8866086365226411  0.3548312220135838  0.09330956488278327  1.0000
  N   N151      1.0  0.8957073731797982  0.38537565573360266  0.08050685244524353  1.0000
  C   C513      1.0  0.8774192488813258  0.39861048704339946  0.09154592592455076  1.0000
  C   C514      1.0  0.8512694738257565  0.39248372809909304  0.07787772399824876  1.0000
  O   O171      1.0  0.8447892119209535  0.4013218671739791  0.0626255130076083  1.0000
  C   C515      1.0  0.8856995356445405  0.4238145132697031  0.0954977835902199  1.0000
  C   C516      1.0  0.8746742841567117  0.43839969364354886  0.11362407288316521  1.0000
  C   C517      1.0  0.8493327933688783  0.44191488258817363  0.11096228445546243  1.0000
  C   C518      1.0  0.889742657365699  0.4485974504069271  0.13335070123080298  1.0000
  C   C519      1.0  0.8394002179611649  0.4555308398489175  0.12750456468406926  1.0000
  C   C520      1.0  0.8797082337290085  0.4621675065893094  0.15010527133401186  1.0000
  C   C521      1.0  0.8544577790950761  0.4655850790211179  0.147116883099229  1.0000
  N   N152      1.0  0.8360024687191375  0.3772762637835385  0.08331561078613235  1.0000
  C   C522      1.0  0.8101184357844399  0.370992507633129  0.07245616720071918  1.0000
  C   C523      1.0  0.7950590561495869  0.3914854664994585  0.07637536488568031  1.0000
  O   O172      1.0  0.7978814125001492  0.4048747208688479  0.09438734424614759  1.0000
  C   C524      1.0  0.7986471458804627  0.35207771408599575  0.08150298185683781  1.0000
  C   C525      1.0  0.7763179507607283  0.33735164256017225  0.06757350008487174  1.0000
  C   C526      1.0  0.7668140620150795  0.3208378983549484  0.0803925425127655  1.0000
  N   N153      1.0  0.7397011046309521  0.31444705711925813  0.07472603585992584  1.0000
  C   C527      1.0  0.7292776400624441  0.2931253808753654  0.06899420924567015  1.0000
  N   N154      1.0  0.7438773232331313  0.27639634843220495  0.06817770972796992  1.0000
  N   N155      1.0  0.7044404755629555  0.288619224468674  0.06402989217805272  1.0000
  N   N156      1.0  0.7789873677568445  0.39400669042155234  0.05932685495609934  1.0000
  C   C528      1.0  0.7637459889463952  0.41310309461207145  0.061596723615306  1.0000
  C   C529      1.0  0.7479357212693325  0.4138337814700293  0.07988631281179136  1.0000
  O   O173      1.0  0.7459570864990668  0.4320956253365423  0.09242774540366701  1.0000
  C   C530      1.0  0.7467557535437445  0.41212789067321576  0.040073796328727714  1.0000
  N   N157      1.0  0.7375031101494547  0.3939460107116263  0.08210719149993599  1.0000
  C   C531      1.0  0.7215822414990212  0.39204258379770934  0.09879644164172888  1.0000
  C   C532      1.0  0.734833367251704  0.4027926046925524  0.12193603797335363  1.0000
  O   O174      1.0  0.7222984594632342  0.40990285619652156  0.13658403932089594  1.0000
  C   C533      1.0  0.7134768111764012  0.3670652937566925  0.09721243257739041  1.0000
  O   O175      1.0  0.7095686091686868  0.3545684530340141  0.07524859555125399  1.0000
  N   N158      1.0  0.7598862525898429  0.4032530666672939  0.12577358570654476  1.0000
  C   C534      1.0  0.7740466989819055  0.4139427552711358  0.14721486304135303  1.0000
  C   C535      1.0  0.7682043865662804  0.4381715203778839  0.1553145382569394  1.0000
  O   O176      1.0  0.7709411134860308  0.4468562306919886  0.17510648656599317  1.0000
  C   C536      1.0  0.802462564184395  0.4138132977713331  0.14656166342719282  1.0000
  C   C537      1.0  0.8118954059895234  0.39074278903078696  0.14391620498984406  1.0000
  C   C538      1.0  0.7978354088196181  0.37262342068310567  0.1484886022889654  1.0000
  C   C539      1.0  0.8349439580550713  0.38708196994436994  0.136861649156914  1.0000
  C   C540      1.0  0.8067092716341018  0.351386509402661  0.1458104838709086  1.0000
  C   C541      1.0  0.8438997750977122  0.3661863215429643  0.1341672007485032  1.0000
  C   C542      1.0  0.8298970324708652  0.3484985527447452  0.13875592803797854  1.0000
  O   O177      1.0  0.8394103746457526  0.32796082045902186  0.13597982967779773  1.0000
  N   N159      1.0  0.7605950840696518  0.44952025855308153  0.14043791704444103  1.0000
  C   C543      1.0  0.7541152431124696  0.4726183735877926  0.14729651299312305  1.0000
  C   C544      1.0  0.731890610633901  0.47413545007828417  0.1600828954403088  1.0000
  O   O178      1.0  0.7263116187624277  0.49296810980475153  0.16896641019288738  1.0000
  C   C545      1.0  0.7478704876424067  0.4827574302005585  0.1276188746165473  1.0000
  C   C546      1.0  0.7703603609739813  0.4893629554953959  0.11760859052954237  1.0000
  S   S19       1.0  0.7957034084802205  0.5068551438490576  0.13684531916656  1.0000
  C   C547      1.0  0.8068215325060795  0.5242036434382983  0.12010707905370512  1.0000
  N   N160      1.0  0.7190570214454497  0.4551671996673462  0.16143828463969118  1.0000
  C   C548      1.0  0.6976872383426918  0.4567117682750312  0.17334284760776067  1.0000
  C   C549      1.0  0.7044843297598506  0.4549181194734594  0.19682537373681955  1.0000
  O   O179      1.0  0.6878519522523988  0.4558751856906146  0.20861562677241097  1.0000
  C   C550      1.0  0.6757701882332521  0.4388977584842523  0.16088306496765503  1.0000
  C   C551      1.0  0.6693364081834229  0.43760862201747225  0.13597982967779773  1.0000
  C   C552      1.0  0.6752286573139212  0.4599982608426688  0.12788015446221138  1.0000
  C   C553      1.0  0.6678822990327924  0.4827459346641013  0.14146670643674336  1.0000
  N   N161      1.0  0.6705190622088872  0.50229041087589  0.13091753266805625  1.0000
  N   N162      1.0  0.7286177253450794  0.45336903063831024  0.2042881793285997  1.0000
  C   C554      1.0  0.7364349466968203  0.4546268733006216  0.22741144566987045  1.0000
  C   C555      1.0  0.7380740683776599  0.47875863566493576  0.24140624740325253  1.0000
  O   O180      1.0  0.739004164739715  0.4819380762567968  0.2614104855869084  1.0000
  C   C556      1.0  0.7614601827304281  0.4445335037074493  0.2302691939818213  1.0000
  C   C557      1.0  0.7576495262354365  0.4189960892161246  0.22259409851543907  1.0000
  C   C558      1.0  0.7822255656850725  0.40921909782524074  0.22037321982729438  1.0000
  C   C559      1.0  0.7822159852537678  0.3864955235525054  0.22620302638367412  1.0000
  N   N163      1.0  0.761519837195119  0.3698194912652637  0.21269812436091218  1.0000
  N   N164      1.0  0.7385719942841837  0.4956334696075597  0.23136330333553962  1.0000
  C   C560      1.0  0.7324779045920222  0.5180345324933388  0.24150422734537658  1.0000
  C   C561      1.0  0.7544390745369837  0.5332099844642357  0.2563155285964589  1.0000
  O   O181      1.0  0.7756782847584528  0.527224573379793  0.25883034711097563  1.0000
  N   N165      1.0  0.748692693580586  0.5535222556945438  0.2665870925291279  1.0000
  C   C562      1.0  0.7679284066324897  0.5707232360573103  0.28048391432038594  1.0000
  C   C563      1.0  0.7782602111023847  0.5648836025855637  0.30164758181917617  1.0000
  O   O182      1.0  0.7979950744418997  0.5755459085456013  0.3123927154721113  1.0000
  C   C564      1.0  0.7575949123282735  0.5937309335385588  0.2860524410311016  1.0000
  O   O183      1.0  0.7575587501408687  0.6044183241233679  0.26844871142948445  1.0000
  N   N166      1.0  0.7654776586908922  0.5485669898978188  0.30811425799936204  1.0000
  C   C565      1.0  0.7763937364683422  0.5411144381460465  0.3271550267521316  1.0000
  C   C566      1.0  0.7991410438890507  0.5283186812881159  0.3227785893372583  1.0000
  O   O184      1.0  0.8150533655564559  0.5270276557366541  0.33822676021214687  1.0000
  C   C567      1.0  0.7565402145310851  0.5263773563820016  0.3346178323439118  1.0000
  C   C568      1.0  0.7453381962093917  0.5392022849021939  0.3542628107397795  1.0000
  C   C569      1.0  0.7653446516072148  0.546314825018031  0.3746099787208695  1.0000
  C   C570      1.0  0.7559091627028551  0.5630291740078412  0.3928342479559388  1.0000
  N   N167      1.0  0.7289821348123331  0.5563741695977279  0.39391202731930314  1.0000
  N   N168      1.0  0.8011533122274845  0.5188760060576278  0.3021864715008583  1.0000
  C   C571      1.0  0.8225393299077215  0.5069362969283752  0.2962260250216466  1.0000
  C   C572      1.0  0.8405266565565033  0.5209202289453084  0.28646069078995173  1.0000
  O   O185      1.0  0.8634779262827385  0.5211105992125623  0.2911963879926131  1.0000
  C   C573      1.0  0.8134332677370423  0.48365309309516036  0.28041859435897  1.0000
  C   C574      1.0  0.8355114717952374  0.4699520853363255  0.27630343678976077  1.0000
  C   C575      1.0  0.7935084618258176  0.4706826580173119  0.2894980689957966  1.0000
  N   N169      1.0  0.8304705272893944  0.5330329557481679  0.2730700986996678  1.0000
  C   C576      1.0  0.8456010138717094  0.5443094283867784  0.2602183962910661  1.0000
  C   C577      1.0  0.837927231872455  0.5679674871069614  0.2603980261849601  1.0000
  O   O186      1.0  0.8290992682607072  0.5729100202348721  0.24336584624573313  1.0000
  C   C578      1.0  0.8430558651409539  0.5300248103993209  0.2368175201137772  1.0000
  C   C579      1.0  0.853877885493384  0.5072654792753526  0.23456398144492457  1.0000
  S   S20       1.0  0.846633015923068  0.4912488247952064  0.2064437380553283  1.0000
  C   C580      1.0  0.8131806366862191  0.491408881446056  0.20139777103594086  1.0000
  N   N170      1.0  0.8414952238166513  0.5832156090296421  0.27947145491843767  1.0000
  C   C581      1.0  0.8339682446373797  0.6060459495590833  0.2800919945518899  1.0000
  C   C582      1.0  0.847104441572381  0.6179292185592418  0.2651827133586835  1.0000
  O   O187      1.0  0.8346708693144885  0.6280474205364753  0.253294480380968  1.0000
  C   C583      1.0  0.8409160490667474  0.6183214830361287  0.30440735018900295  1.0000
  C   C584      1.0  0.8605115207192572  0.6049431721326685  0.31376443466184767  1.0000
  C   C585      1.0  0.8533302146621491  0.580856763664198  0.30101071219536996  1.0000
  N   N171      1.0  0.8717014063838927  0.6164584332671333  0.26488877353231144  1.0000
  C   C586      1.0  0.884878354722537  0.6280831583889509  0.2511225916638854  1.0000
  C   C587      1.0  0.8747329936351602  0.6184170966561476  0.22711750584349838  1.0000
  O   O188      1.0  0.8693014801470487  0.6310071956146848  0.2148536830876408  1.0000
  C   C588      1.0  0.9132028089430928  0.6265479678790985  0.25553168905946666  1.0000
  C   C589      1.0  0.9254572633041488  0.6423608676552798  0.2766790265679029  1.0000
  O   O189      1.0  0.9300215453581491  0.6628827032420636  0.27800175578657726  1.0000
  N   N172      1.0  0.9306045516132886  0.6330899537828565  0.2935642365939438  1.0000
  N   N173      1.0  0.8716845640941608  0.5959609210638354  0.22006295001056833  1.0000
  C   C590      1.0  0.8624904409791155  0.5858065198226581  0.1970703235921296  1.0000
  C   C591      1.0  0.8358005781447257  0.5913011743147122  0.19119152706468787  1.0000
  O   O190      1.0  0.8292915190601376  0.5967788663331408  0.17393072726050482  1.0000
  C   C592      1.0  0.8645846912732813  0.5601537412168381  0.1920406865630961  1.0000
  C   C593      1.0  0.8924130811064306  0.5562223974173872  0.19243260633159226  1.0000
  C   C594      1.0  0.8496529584310084  0.5482162018188996  0.1700115295755437  1.0000
  C   C595      1.0  0.8977175016736976  0.5327105303166891  0.19409826534770072  1.0000
  N   N174      1.0  0.82016863756213  0.5908391230851066  0.20580686843152216  1.0000
  C   C596      1.0  0.794273388721541  0.5959312973972704  0.20108750121921476  1.0000
  C   C597      1.0  0.7929506269196253  0.6203102128732751  0.19953615213558432  1.0000
  O   O191      1.0  0.7750043388171055  0.625182607310388  0.18771323911928484  1.0000
  C   C598      1.0  0.7788551623811204  0.5911931613340566  0.21847894094622985  1.0000
  C   C599      1.0  0.7737535623444656  0.5662514330842621  0.2186259108594159  1.0000
  C   C600      1.0  0.7607336051448501  0.551394790694843  0.19669473381398747  1.0000
  O   O192      1.0  0.7487500535421485  0.5603998332574253  0.18323882176228756  1.0000
  O   O193      1.0  0.7621006150405977  0.530526425055445  0.19318378588787646  1.0000
  N   N175      1.0  0.8110842428586852  0.6359343839297561  0.21158768501683986  1.0000
  C   C601      1.0  0.8109561912191159  0.659254657926018  0.2094157962997572  1.0000
  C   C602      1.0  0.8179231750874835  0.6614133742135186  0.1874682892639748  1.0000
  O   O194      1.0  0.8063954644822551  0.6732864656926161  0.17701709543741173  1.0000
  C   C603      1.0  0.828807335958166  0.6756187893529104  0.2278850153901366  1.0000
  C   C604      1.0  0.8282799730005366  0.7001146961957889  0.22574578665376197  1.0000
  C   C605      1.0  0.8459721256570725  0.7171465843407878  0.2436597860721052  1.0000
  C   C606      1.0  0.8485078925189908  0.7400638452698163  0.23768300960253946  1.0000
  N   N176      1.0  0.8652071002626543  0.7580195217490339  0.2546825295610584  1.0000
  N   N177      1.0  0.8369836041500623  0.6502419692877885  0.1803647434599827  1.0000
  C   C607      1.0  0.8435905359397198  0.6502493396048135  0.15882548618305042  1.0000
  C   C608      1.0  0.8210480020082648  0.6409783354421862  0.14110744664895525  1.0000
  O   O195      1.0  0.815896650786387  0.6506087926826705  0.12619816545574888  1.0000
  C   C609      1.0  0.8656944212272268  0.636277949900266  0.15441638878746913  1.0000
  C   C610      1.0  0.8925292393523327  0.6449896670333285  0.16578206207385643  1.0000
  C   C611      1.0  0.910191548265593  0.6269357649744947  0.15890713613482044  1.0000
  C   C612      1.0  0.9009315037354865  0.6666898713793181  0.1598706055657067  1.0000
  N   N178      1.0  0.8071955602526408  0.6224572910414251  0.1427404456843557  1.0000
  C   C613      1.0  0.7855075537493287  0.6118826144295715  0.12645944530141295  1.0000
  C   C614      1.0  0.7640748514749116  0.6269608163053342  0.12672072514707702  1.0000
  O   O196      1.0  0.7526213935011783  0.6294581071483917  0.10944359535253999  1.0000
  C   C615      1.0  0.7764249993248147  0.5889146039589774  0.1303133230249581  1.0000
  C   C616      1.0  0.7545396289993795  0.5754513283284759  0.11359141290245721  1.0000
  C   C617      1.0  0.7389210040398821  0.559985144073327  0.12407526670972827  1.0000
  N   N179      1.0  0.727131703571892  0.5733350682581511  0.14153202639815937  1.0000
  C   C618      1.0  0.7039728979926396  0.5796429145500932  0.13846198821160646  1.0000
  N   N180      1.0  0.6903556789441396  0.5736547914398289  0.1187353598639687  1.0000
  N   N181      1.0  0.6943858671731176  0.5918859123867308  0.1549716084595053  1.0000
  N   N182      1.0  0.7580888323852994  0.6371023802923184  0.14602277374551068  1.0000
  C   C619      1.0  0.7362129838820208  0.6498542963298124  0.14612075368763472  1.0000
  C   C620      1.0  0.7419582557431255  0.6730998877054728  0.14159734635957538  1.0000
  O   O197      1.0  0.7250800408311986  0.6814390910405523  0.13194632206035856  1.0000
  C   C621      1.0  0.7257023324377978  0.6521778985481812  0.167643680974213  1.0000
  O   O198      1.0  0.7449908016447226  0.6544760689072816  0.1855576803925562  1.0000
  N   N183      1.0  0.7651524261175153  0.6838624985018088  0.14798237258799124  1.0000
  C   C622      1.0  0.7701027208239432  0.7064029680545084  0.14412849486444612  1.0000
  C   C623      1.0  0.7791888685625225  0.7061025913209664  0.12240960769361978  1.0000
  O   O199      1.0  0.7779970323605592  0.7230390945687452  0.11493047211148559  1.0000
  C   C624      1.0  0.789676928917822  0.7216128065685523  0.16232010411880743  1.0000
  S   S21       1.0  0.7852462468084453  0.7221484887548207  0.19014640768203156  1.0000
  N   N184      1.0  0.7883820250136513  0.6877264301158867  0.11218703373201279  1.0000
  C   C625      1.0  0.7968581502853129  0.6862316737472277  0.09115400615605464  1.0000
  C   C626      1.0  0.7780411110678959  0.6723727457749252  0.0721785573647011  1.0000
  O   O200      1.0  0.7549811366824055  0.6722164242234863  0.0722112173454091  1.0000
  N   N185      1.0  0.7880354769160666  0.6609032384323462  0.05547297723255421  1.0000
  C   C627      1.0  0.773157431167403  0.646471077516075  0.035779008865624455  1.0000
  C   C628      1.0  0.7761589042691107  0.6218501096322939  0.03589331879810249  1.0000
  O   O201      1.0  0.7973476836321188  0.6157614294450207  0.03984517646377164  1.0000
  C   C629      1.0  0.7817334292609355  0.6520655991352988  0.015415510894180504  1.0000
  O   O202      1.0  0.7769748486794101  0.674740165295819  0.014615341366834272  1.0000
  C   C630      1.0  0.7674935197138488  0.6356962005348312  0.9947417431060105  1.0000
  N   N186      1.0  0.7553077977165854  0.6076188390352519  0.03176183123853928  1.0000
  C   C631      1.0  0.757421640908115  0.5842243820117993  0.03270897067907156  1.0000
  C   C632      1.0  0.7378445142279653  0.5687700597107896  0.01512157106780842  1.0000
  O   O203      1.0  0.7175871953986201  0.5752274140112561  0.009014154675410635  1.0000
  C   C633      1.0  0.755093548848379  0.5808907418262784  0.055685267107156274  1.0000
  C   C634      1.0  0.7285739968925535  0.5796210372098277  0.06063325418441972  1.0000
  N   N187      1.0  0.7158045284747179  0.5984453370240415  0.06571188118451521  1.0000
  C   C635      1.0  0.7123235064951001  0.5616997995664468  0.06110682390468586  1.0000
  C   C636      1.0  0.6927232712438457  0.5921989982711755  0.06883090934213011  1.0000
  N   N188      1.0  0.6901847090571218  0.5699752447480967  0.06621811088548935  1.0000
  N   N189      1.0  0.7447229208243525  0.549415254409251  0.006254386305583828  1.0000
  C   C637      1.0  0.7264833497502621  0.5314941738283662  0.9925698543889279  1.0000
  C   C638      1.0  0.7178415586518939  0.5152377982534083  0.005895126517795723  1.0000
  O   O204      1.0  0.7315614173430636  0.5133471752997524  0.022437406746402558  1.0000
  C   C639      1.0  0.7379164274326615  0.5184631734019912  0.9730881758966001  1.0000
  N   N190      1.0  0.695057041505138  0.5034213135574938  0.999967340019292  1.0000
  C   C640      1.0  0.688253264108639  0.4864090666180099  0.01183924300665346  1.0000
  C   C641      1.0  0.7052550559756825  0.4674495282418329  0.009193784569304687  1.0000
  O   O205      1.0  0.7093810325345119  0.4574043340437152  0.023956095849325003  1.0000
  C   C642      1.0  0.6606405975752399  0.4780096547604933  0.001796298938940525  1.0000
  C   C643      1.0  0.6583666353617676  0.48226975730854  0.979636502028556  1.0000
  C   C644      1.0  0.6753578702667915  0.5033652445496639  0.9815471108999746  1.0000
  N   N191      1.0  0.7151878845932805  0.46229200670580317  0.9906919054982173  1.0000
  C   C645      1.0  0.7347043803007396  0.4470210031835973  0.9877361772441424  1.0000
  C   C646      1.0  0.7471794644800759  0.45001872854669356  0.9682381687614607  1.0000
  O   O206      1.0  0.7379827580535421  0.4606376552821907  0.9553211463914429  1.0000
  C   C647      1.0  0.7243802604823892  0.42219183654784415  0.9848294389611296  1.0000
  C   C648      1.0  0.7047825881770864  0.4126819203052262  0.9646945608546417  1.0000
  C   C649      1.0  0.7116565792982805  0.40244399593654  0.9446739926806318  1.0000
  C   C650      1.0  0.6793659768985341  0.41387855525827905  0.96587032016013  1.0000
  C   C651      1.0  0.6933011582539876  0.39378371829488223  0.9262374335709604  1.0000
  C   C652      1.0  0.6611989100951944  0.40521254414356755  0.9479399907514328  1.0000
  C   C653      1.0  0.6681818393390542  0.3952366751022724  0.928246022384503  1.0000
  O   O207      1.0  0.649418544372878  0.386935231880079  0.910723942734656  1.0000
  N   N192      1.0  0.768597212305579  0.440503583128015  0.9664092098418122  1.0000
  C   C654      1.0  0.7822440472033882  0.44002829982061237  0.9479563207417868  1.0000
  C   C655      1.0  0.7860971758155948  0.4154421657806997  0.9384849263364641  1.0000
  O   O208      1.0  0.7916658438682903  0.402963115360797  0.9507324191019676  1.0000
  C   C656      1.0  0.8075667280655647  0.4546813302733879  0.9551741764782569  1.0000
  C   C657      1.0  0.8231418257809229  0.4556477937715609  0.9370968771563736  1.0000
  S   S22       1.0  0.8529699059544872  0.4731282868251724  0.9471561512144405  1.0000
  C   C658      1.0  0.8703895399516945  0.45334254803724294  0.9585871444622439  1.0000
  N   N193      1.0  0.7827290446582366  0.4083254861502554  0.9168640191077617  1.0000
  C   C659      1.0  0.7842356649972813  0.38471694943087326  0.9063638353101366  1.0000
  C   C660      1.0  0.8113574102254775  0.38137391214876265  0.9027712374322556  1.0000
  O   O209      1.0  0.8218161723040058  0.3922383218580469  0.8915035440879923  1.0000
  C   C661      1.0  0.7661817294901806  0.3772220605269069  0.8847429280814343  1.0000
  C   C662      1.0  0.7635768564348081  0.3514194170864733  0.8738834844960212  1.0000
  C   C663      1.0  0.7400831864897011  0.34309445949561507  0.8560021450583859  1.0000
  N   N194      1.0  0.7338396263677922  0.36076236814154083  0.8447834416851846  1.0000
  C   C664      1.0  0.7125173153649113  0.37060672901670105  0.8452243514247428  1.0000
  N   N195      1.0  0.695033721023038  0.3643226730364738  0.8562634249040499  1.0000
  N   N196      1.0  0.7085596991090131  0.38676824299018914  0.8345608677235776  1.0000
  N   N197      1.0  0.8232732078344995  0.36678854612207074  0.9116384221944802  1.0000
  C   C665      1.0  0.8482112523984295  0.36110843171024853  0.9061188854548266  1.0000
  C   C666      1.0  0.8460097531755948  0.3473256661400225  0.8826200293354137  1.0000
  O   O210      1.0  0.8254808942546176  0.34096990139731864  0.8711400461165484  1.0000
  C   C667      1.0  0.8565118009810642  0.3471733983321413  0.9224325458184773  1.0000
  C   C668      1.0  0.8318099268439908  0.3350674327795067  0.924735074458392  1.0000
  C   C669      1.0  0.8131601190297342  0.35233693887586737  0.9249473643329941  1.0000
  N   N198      1.0  0.8679052535824968  0.3428966713222291  0.8753858436085896  1.0000
  C   C670      1.0  0.8685182922223534  0.32707845678336556  0.8546140958782955  1.0000
  C   C671      1.0  0.8708531211056336  0.3035552036195996  0.8585496235536106  1.0000
  O   O211      1.0  0.8781392885680285  0.30081623149003  0.876839212750096  1.0000
  C   C672      1.0  0.8904430464119664  0.3341451672967158  0.8430851226883681  1.0000
  C   C673      1.0  0.8856245612831486  0.3552825588689154  0.8357692870097739  1.0000
  C   C674      1.0  0.9162036950813721  0.336999465358838  0.8580760538333445  1.0000
  N   N199      1.0  0.8651583776885089  0.2862670745033027  0.8410602038844716  1.0000
  C   C675      1.0  0.869523247539581  0.2631870163072529  0.842676872929518  1.0000
  C   C676      1.0  0.8955734845662561  0.2578780406817453  0.8367980764020764  1.0000
  O   O212      1.0  0.9040857441415397  0.26537317712283987  0.8224276848905521  1.0000
  C   C677      1.0  0.8489942158817128  0.24605152123209123  0.8275879618424176  1.0000
  C   C678      1.0  0.8512620581891179  0.221284023901493  0.8272450320449836  1.0000
  C   C679      1.0  0.8421017371173445  0.2113680778479922  0.84272586290058  1.0000
  C   C680      1.0  0.8621941339146301  0.20765505332530237  0.8109150416909787  1.0000
  C   C681      1.0  0.8441274823125589  0.18843907402980611  0.8421053232671278  1.0000
  C   C682      1.0  0.8640678568591822  0.18488299912411232  0.8100658821925705  1.0000
  C   C683      1.0  0.855063560127234  0.1753322490286868  0.825759002922769  1.0000
  O   O213      1.0  0.8570613398837273  0.15266249803743814  0.8250568133375469  1.0000
  N   N200      1.0  0.9093154319838642  0.24543627448365757  0.8476738499778435  1.0000
  C   C684      1.0  0.9018657078767196  0.23644540618942197  0.8656858293383107  1.0000
  C   C685      1.0  0.9047327055523591  0.2550720938915032  0.8862452871940028  1.0000
  O   O214      1.0  0.9209720119830187  0.27105466165831993  0.8890867055155995  1.0000
  C   C686      1.0  0.920234782020139  0.21898727125515755  0.8678903780361014  1.0000
  C   C687      1.0  0.943334232114182  0.2284711371645425  0.8615216817980396  1.0000
  C   C688      1.0  0.9348597087861175  0.24028993435909252  0.8436403423604043  1.0000
  N   N201      1.0  0.888459162714047  0.25362165404992393  0.9001257789949069  1.0000
  C   C689      1.0  0.8887218649104546  0.2720759141464409  0.9193298476512164  1.0000
  C   C690      1.0  0.9097850210259225  0.2697001728952358  0.9371621971177897  1.0000
  O   O215      1.0  0.905600306847481  0.2643922344540641  0.9540474071438305  1.0000
  C   C691      1.0  0.8626159862964788  0.27210669406232374  0.9264007334745005  1.0000
  O   O216      1.0  0.8538309153199941  0.24978192675435  0.9270865930693687  1.0000
  C   C692      1.0  0.8437567178110825  0.27893173758433687  0.9094665334773976  1.0000
  N   N202      1.0  0.9331258694639806  0.2734183410073647  0.9327367697318544  1.0000
  C   C693      1.0  0.9563282795707867  0.27310470342124776  0.9472214711758565  1.0000
  C   C694      1.0  0.9716145663794206  0.2962112735464268  0.9527246779251561  1.0000
  O   O217      1.0  0.9673626059703304  0.31017868079886324  0.941701934436203  1.0000
  C   C695      1.0  0.9721896244805357  0.2551411047389051  0.9365416574843375  1.0000
  C   C696      1.0  0.958752598837141  0.2315410088148161  0.9311037706964539  1.0000
  C   C697      1.0  0.9570688613475032  0.2237257257780901  0.9517285485135619  1.0000
  C   C698      1.0  0.9533778855348887  0.19800654358088315  0.9468948713687765  1.0000
  N   N203      1.0  0.9494660966769495  0.1909649603934014  0.9672583693402205  1.0000
  N   N204      1.0  0.9906772289653694  0.29943511643641724  0.9691363182309309  1.0000
  C   C699      1.0  0.004681558072034676  0.32165718082283545  0.9786893625880237  1.0000
  C   C700      1.0  0.019071878104538965  0.33043674333124534  0.962473682166497  1.0000
  O   O218      1.0  0.015347934326741235  0.34884657742729336  0.9583421946069338  1.0000
  C   C701      1.0  0.022928192838387724  0.32059368128829624  0.9988242406945117  1.0000
  O   O219      1.0  0.009099542518654911  0.3148156505338401  0.014876621212498348  1.0000
  C   C702      1.0  0.038238139073964506  0.3434199013018875  0.008426275022666463  1.0000
  N   N205      1.0  0.03641178704620959  0.31792217400564526  0.9537371373271045  1.0000
  C   C703      1.0  0.053285387932848906  0.3271271362909852  0.9407547949956707  1.0000
  C   C704      1.0  0.03944606561197523  0.3303647872160685  0.9195094775451105  1.0000
  O   O220      1.0  0.044700478671510724  0.348330764984911  0.9140552607668728  1.0000
  C   C705      1.0  0.07457935389639396  0.31211187414666663  0.9362477176579653  1.0000
  C   C706      1.0  0.09772493395886038  0.31880432924825597  0.9529859577708203  1.0000
  C   C707      1.0  0.09575653738906613  0.32520839785816097  0.9750477747390807  1.0000
  C   C708      1.0  0.12143799631179031  0.3182281796268621  0.9467642314459445  1.0000
  C   C709      1.0  0.1171880434751355  0.3309587841365098  0.9907082354885712  1.0000
  C   C710      1.0  0.14288709698337657  0.3238924972215413  0.962343042243665  1.0000
  C   C711      1.0  0.14084855643971295  0.33033393093630065  0.9842905492794474  1.0000
  N   N206      1.0  0.022759392751932322  0.3138645322173626  0.9063148453390746  1.0000
  C   C712      1.0  0.008293458742415858  0.3186253928176053  0.886963806769579  1.0000
  C   C713      1.0  0.9940181153554336  0.3390469235680905  0.8926466434127727  1.0000
  O   O221      1.0  0.9932187227545656  0.35265039099356615  0.8810196902807212  1.0000
  C   C714      1.0  0.9906057961513861  0.2967121222576826  0.8772637924993001  1.0000
  C   C715      1.0  0.004940734290415424  0.27891241991097915  0.8847102681007263  1.0000
  C   C716      1.0  0.01689051264154671  0.2901038324599062  0.9073762947120849  1.0000
  N   N207      1.0  0.9838924103372195  0.3424208073539484  0.91098522258032  1.0000
  C   C717      1.0  0.9679363029900755  0.360713716670987  0.9151167101398832  1.0000
  C   C718      1.0  0.9828703001893387  0.3837496485119575  0.924702414477684  1.0000
  O   O222      1.0  0.9751578710643294  0.4004744272635391  0.9191502177573224  1.0000
  C   C719      1.0  0.9489517296939098  0.35551239701561743  0.9295197616321154  1.0000
  C   C720      1.0  0.924498497721057  0.344830054842033  0.9160475195900615  1.0000
  O   O223      1.0  0.9096396576538406  0.35653719443114873  0.9086337039693433  1.0000
  N   N208      1.0  0.9210057103261019  0.32244128202792927  0.911050542541736  1.0000
  N   N209      1.0  0.0037060584480711613  0.3852363019126555  0.9392850958638103  1.0000
  C   C721      1.0  0.019338801834692068  0.40698400599903567  0.9480543006839108  1.0000
  C   C722      1.0  0.03142985100439552  0.414461618488812  0.9301729612462756  1.0000
  O   O224      1.0  0.033863635652554507  0.43461474666847033  0.9298137014584875  1.0000
  C   C723      1.0  0.039893734516749095  0.40551870193927037  0.9665725097453522  1.0000
  C   C724      1.0  0.03171680320308076  0.4037055165175624  0.9884546968197186  1.0000
  C   C725      1.0  0.054035411915246655  0.3993740477379534  0.0033803080032789876  1.0000
  C   C726      1.0  0.02194012140804294  0.4255628845393162  0.9989222206366357  1.0000
  N   N210      1.0  0.039563014462675905  0.3985340159576248  0.9153126700241312  1.0000
  C   C727      1.0  0.05027164949236141  0.4052016102692311  0.897480320557558  1.0000
  C   C728      1.0  0.029871684325027733  0.4108371702084381  0.8809870303000132  1.0000
  O   O225      1.0  0.034991901307509336  0.42573300490311117  0.8714503159332745  1.0000
  C   C729      1.0  0.06579350829744927  0.38698022424625106  0.8864249170878968  1.0000
  C   C730      1.0  0.0859777716162876  0.39677004818774575  0.8756634534446077  1.0000
  C   C731      1.0  0.1031702961889168  0.4151208917105284  0.8873720565284291  1.0000
  C   C732      1.0  0.08767536422468045  0.3881245062921275  0.8539119062930733  1.0000
  C   C733      1.0  0.12157413092034731  0.4244881516694789  0.8776230522870883  1.0000
  C   C734      1.0  0.10647432518996523  0.3972004630819685  0.8439832721578384  1.0000
  C   C735      1.0  0.12291979715834987  0.4153166149224071  0.8558061851741379  1.0000
  O   O226      1.0  0.14092293616063298  0.4242281328976733  0.8458775510389029  1.0000
  N   N211      1.0  0.006680725355736637  0.39987935968040167  0.8777863521906283  1.0000
  C   C736      1.0  0.9860690638003875  0.4070670393091543  0.8644284200810524  1.0000
  C   C737      1.0  0.9811750721999285  0.4311985590243506  0.8746509940426593  1.0000
  O   O227      1.0  0.9775447730770521  0.4449124469229033  0.863203670804502  1.0000
  C   C738      1.0  0.961980381127329  0.39085936260942944  0.8612767319427295  1.0000
  O   O228      1.0  0.9636758347498283  0.3708016718041085  0.8446854617430606  1.0000
  C   C739      1.0  0.9384255785666366  0.4024125644371885  0.8544344659844014  1.0000
  N   N212      1.0  0.9809417546638193  0.4368149961657824  0.8961902513195916  1.0000
  C   C740      1.0  0.9778814050010862  0.4602503487418967  0.9068537350207568  1.0000
  C   C741      1.0  0.9989701431785054  0.4768857900098766  0.9035224169885399  1.0000
  O   O229      1.0  0.9942956571921829  0.4955927416311271  0.9003217388791549  1.0000
  C   C742      1.0  0.9773095430133198  0.4626593439892708  0.9312344106192859  1.0000
  C   C743      1.0  0.9530475238684895  0.4542903123360227  0.9386482262400041  1.0000
  C   C744      1.0  0.9586851948629617  0.45242381752141364  0.9617714925812748  1.0000
  C   C745      1.0  0.9329178406552748  0.47042377271462454  0.9367376173685855  1.0000
  N   N213      1.0  0.022186224379340008  0.47020551550657336  0.9035060869981858  1.0000
  C   C746      1.0  0.04349893703067119  0.48565665948228287  0.9015628181460592  1.0000
  C   C747      1.0  0.0440243630154574  0.4880247973589378  0.8784068918240805  1.0000
  O   O230      1.0  0.05623172905203314  0.5047533777977946  0.8755164835314216  1.0000
  C   C748      1.0  0.06875593096889875  0.47800011037742784  0.9098584532458937  1.0000
  N   N214      1.0  0.03196023885578002  0.47159308709258324  0.8617829616437036  1.0000
  C   C749      1.0  0.033857089675989945  0.4718218455382805  0.839149595013053  1.0000
  C   C750      1.0  0.009092488919825665  0.47349053318074635  0.8251547932796709  1.0000
  O   O231      1.0  0.009723702813863103  0.4797987458903704  0.8078613334947798  1.0000
  C   C751      1.0  0.04435177513365956  0.4501807602377026  0.8278982316591437  1.0000
  O   O232      1.0  0.02656163474842512  0.4311335592194095  0.8269510922186114  1.0000
  C   C752      1.0  0.06985846010563863  0.44740276245696786  0.8404070042703113  1.0000
  N   N215      1.0  0.9874881096530126  0.467185232444965  0.8312785396624227  1.0000
  C   C753      1.0  0.9638736304192225  0.46663742665668234  0.8174960278036427  1.0000
  C   C754      1.0  0.957787069961861  0.44565193647468193  0.7992227685975113  1.0000
  O   O233      1.0  0.9394168302607019  0.44429984598128297  0.7849830170088192  1.0000
  N   N216      1.0  0.9720627328454613  0.4288734439150027  0.7997289982984854  1.0000
  C   C755      1.0  0.9702088315227115  0.4090093588829357  0.7817333489283722  1.0000
  C   C756      1.0  0.9592826113965142  0.38806025832130775  0.788020395214664  1.0000
  O   O234      1.0  0.9626456085740795  0.38623109531762084  0.8071918038902657  1.0000
  C   C757      1.0  0.9962854188546647  0.4051292452197035  0.7751197028350003  1.0000
  C   C758      1.0  0.008911011826484775  0.42155938541437915  0.764015309394277  1.0000
  C   C759      1.0  0.0359943288178661  0.4166669357649621  0.7628558800791427  1.0000
  C   C760      1.0  0.9948821266640334  0.4193685094957453  0.7408430530819443  1.0000
  N   N217      1.0  0.9459499688064932  0.37220730511678984  0.7716740748703053  1.0000
  C   C761      1.0  0.9394885218910837  0.3496202255371323  0.7746787930954422  1.0000
  C   C762      1.0  0.9635800985443514  0.33840812482233373  0.7789899105488994  1.0000
  O   O235      1.0  0.9824629904959011  0.3429805040555762  0.770988215275437  1.0000
  C   C763      1.0  0.9227009290486994  0.33511199739699876  0.7543479551047062  1.0000
  C   C764      1.0  0.8974920714824205  0.34388199615473  0.7488120883746986  1.0000
  C   C765      1.0  0.8793560764202847  0.34470913857260405  0.7626599201948946  1.0000
  C   C766      1.0  0.8918586027995248  0.35092813756719043  0.729591689728035  1.0000
  C   C767      1.0  0.8563845561044615  0.3524004929309777  0.7576139531755072  1.0000
  C   C768      1.0  0.8691202980487706  0.3587514616875953  0.7244150827858155  1.0000
  C   C769      1.0  0.851395704466758  0.35937638147566886  0.7385078644613216  1.0000
  O   O236      1.0  0.8286761356916725  0.3668014125198978  0.733184287605916  1.0000
  N   N218      1.0  0.9634800408598584  0.32354793280192196  0.791515013150421  1.0000
  C   C770      1.0  0.9852282035976461  0.31053650699319757  0.7941441415974159  1.0000
  C   C771      1.0  0.993292741516979  0.2982143967831263  0.7728171741950856  1.0000
  O   O237      1.0  0.016189043282510543  0.29723538156540286  0.7717230648413673  1.0000
  C   C772      1.0  0.9758528974404427  0.29373530889524657  0.8068652040831855  1.0000
  C   C773      1.0  0.9577436685585676  0.30637020497551704  0.8203864360963015  1.0000
  C   C774      1.0  0.9451861400863616  0.320618461932952  0.8063916343629194  1.0000
  N   N219      1.0  0.9755043708621799  0.288538109940155  0.7558503142172747  1.0000
  C   C775      1.0  0.9834041937937664  0.27614239717934297  0.7356827761300788  1.0000
  C   C776      1.0  0.0002541971937268644  0.29163343281731036  0.7264236715993581  1.0000
  O   O238      1.0  0.01647467916792026  0.2836350356533838  0.7156785379464229  1.0000
  C   C777      1.0  0.9605727774121549  0.26476875062505517  0.7185689462390817  1.0000
  C   C778      1.0  0.944692036786345  0.2815616553986168  0.7097180914672112  1.0000
  C   C779      1.0  0.9223975926201412  0.2704651710390239  0.692065371894532  1.0000
  O   O239      1.0  0.917906820259836  0.24910207105870882  0.6864315252224003  1.0000
  O   O240      1.0  0.9090364671045972  0.28345702693367997  0.6839983566596537  1.0000
  N   N220      1.0  0.997193979377143  0.31384705640843547  0.7309144189467094  1.0000
  C   C780      1.0  0.013202246281725397  0.33066188159221543  0.7242027929112134  1.0000
  C   C781      1.0  0.03666726077977925  0.3411981463232862  0.7409247030337143  1.0000
  O   O241      1.0  0.057149413816150955  0.34400600571612167  0.7344906868342365  1.0000
  C   C782      1.0  0.997848072162807  0.3495651606041342  0.7187485761329758  1.0000
  O   O242      1.0  0.9757947015536911  0.34126555398950514  0.7032187553063173  1.0000
  N   N221      1.0  0.03506394622027781  0.3475470689327258  0.7622353404456905  1.0000
  C   C783      1.0  0.05862729516585682  0.35711662281292345  0.7765894019668607  1.0000
  C   C784      1.0  0.0754983291930952  0.339221735332593  0.7816680289669562  1.0000
  O   O243      1.0  0.09710574658138739  0.34549281599488807  0.791351713246881  1.0000
  C   C785      1.0  0.054151751216948034  0.3734140937041361  0.7979000393788369  1.0000
  C   C786      1.0  0.039829390088424364  0.36299110894286785  0.8125317107360253  1.0000
  N   N222      1.0  0.04661351668018654  0.3442916798131283  0.8197985564435574  1.0000
  C   C787      1.0  0.01974169626041957  0.3696688092996604  0.822329704948428  1.0000
  C   C788      1.0  0.031003242258633386  0.3396613377837917  0.8330585086110092  1.0000
  N   N223      1.0  0.014435427951972505  0.35473472449028287  0.8348221475692417  1.0000
  N   N224      1.0  0.06692804112620378  0.3172505495656835  0.7746461331147341  1.0000
  C   C789      1.0  0.08306224375546153  0.29962161427823336  0.777552871397747  1.0000
  C   C790      1.0  0.08198820829228337  0.2907421656438966  0.797998019320961  1.0000
  O   O244      1.0  0.09022037106253193  0.27231033025459095  0.7987328688868912  1.0000
  N   N225      1.0  0.07358077180404299  0.3033574299258166  0.8150791892312499  1.0000
  C   C791      1.0  0.07379203777934688  0.295965629175417  0.835687637058004  1.0000
  C   C792      1.0  0.04811269049770989  0.2828452150859833  0.8338423481480014  1.0000
  O   O245      1.0  0.030729030539812133  0.29126483921830043  0.8427095329102261  1.0000
  C   C793      1.0  0.07969582644115264  0.3158879529466281  0.8560348050390939  1.0000
  C   C794      1.0  0.10410111552841461  0.33028656003691276  0.8554142654056418  1.0000
  C   C795      1.0  0.0815529768156199  0.30764646600616125  0.8775250723449642  1.0000
  C   C796      1.0  0.12763414877459173  0.3171194883314138  0.8552999554731637  1.0000
  N   N226      1.0  0.04554212419862867  0.2614287391249028  0.821774485276392  1.0000
  C   C797      1.0  0.021364093666319358  0.24723048476292217  0.8163202684981543  1.0000
  C   C798      1.0  0.016492091322559594  0.23438145650960485  0.8336953782348154  1.0000
  O   O246      1.0  0.9963942946901689  0.2219945746641074  0.8312948696527767  1.0000
  C   C799      1.0  0.019670185648716965  0.23027070038843184  0.7938665317613978  1.0000
  C   C800      1.0  0.025196224758447874  0.2426154924344354  0.7760505122851785  1.0000
  C   C801      1.0  0.03826005176552743  0.21231000408833936  0.7951076110283021  1.0000
  N   N227      1.0  0.03399420733622298  0.23697729157642547  0.8510868179618305  1.0000
  C   C802      1.0  0.029922226486934385  0.22663823435786257  0.8690334773608818  1.0000
  C   C803      1.0  0.05105357430821889  0.23596739637659467  0.8878456262486952  1.0000
  O   O247      1.0  0.07016941616906554  0.24721422146187252  0.8855267676184265  1.0000
  N   N228      1.0  0.047144645468765047  0.23164750872006443  0.9068537350207568  1.0000
  C   C804      1.0  0.06809589134340703  0.23567207727701403  0.924833054400516  1.0000
  C   C805      1.0  0.08840544677385104  0.22002354013595046  0.9191012277862604  1.0000
  O   O248      1.0  0.11086253467900889  0.22653362805645028  0.9260414736867124  1.0000
  C   C806      1.0  0.058560674918796136  0.23233316991791803  0.9456048021308101  1.0000
  C   C807      1.0  0.04437986257637812  0.25165901761596327  0.9558110461020631  1.0000
  O   O249      1.0  0.045977912308321336  0.2699291025141763  0.9503894893045335  1.0000
  N   N229      1.0  0.03052059229206131  0.24781680664851058  0.9707203272952695  1.0000
  N   N230      1.0  0.08077134980022137  0.1991251511183733  0.9070007049339428  1.0000
  C   C808      1.0  0.09794319633273701  0.18370273639221424  0.897415000596142  1.0000
  C   C809      1.0  0.09074722185033435  0.17763976889526975  0.8728220351230108  1.0000
  O   O250      1.0  0.06821889780562745  0.174612063039519  0.8644774100521144  1.0000
  C   C810      1.0  0.0973477997659561  0.16172846259020837  0.9054656858406663  1.0000
  O   O251      1.0  0.09913600534576086  0.1661315639528371  0.9284746422494591  1.0000
  N   N231      1.0  0.10983557670363879  0.17588870967103057  0.8612114119813135  1.0000
  C   C811      1.0  0.10488399899264493  0.16862261721027597  0.8374676060065905  1.0000
  C   C812      1.0  0.12815339441478976  0.15958561478015346  0.828829041109322  1.0000
  O   O252      1.0  0.1493774719258324  0.16527801926365107  0.8394925248104871  1.0000
  C   C813      1.0  0.09706182539874826  0.18776005501719578  0.8269347622282575  1.0000
  C   C814      1.0  0.1107219602706796  0.21041471813989784  0.8387576752445569  1.0000
  S   S23       1.0  0.1008481686736796  0.23320646602372025  0.8270490721607355  1.0000
  C   C815      1.0  0.12358398840568138  0.25554797215495884  0.8442282220131485  1.0000
  N   N232      1.0  0.12368959916383475  0.1450701876806663  0.8094616725494723  1.0000
  C   C816      1.0  0.1436853122586698  0.13575837355199893  0.798063339282377  1.0000
  C   C817      1.0  0.1433011680199341  0.14468736318589392  0.777552871397747  1.0000
  O   O253      1.0  0.12302729780959384  0.14515580924804258  0.7660728881788816  1.0000
  C   C818      1.0  0.1402726296002813  0.10973270043533936  0.7926581124752015  1.0000
  C   C819      1.0  0.15820841535722693  0.09898897919482508  0.7778141512434111  1.0000
  C   C820      1.0  0.18385385718423436  0.10007860994563653  0.7854402567387313  1.0000
  C   C821      1.0  0.1495661827291913  0.08820188343335271  0.7559809541401067  1.0000
  C   C822      1.0  0.20050754428406106  0.09059324055243703  0.7717557248220753  1.0000
  C   C823      1.0  0.1661430590801754  0.07858517234367915  0.7422311022620347  1.0000
  C   C824      1.0  0.1913851983404328  0.07976409298898525  0.750216467545143  1.0000
  O   O254      1.0  0.20783886848232697  0.07048374872603994  0.7366952355320271  1.0000
  N   N233      1.0  0.16546525602072487  0.15310253856662154  0.7736989936742018  1.0000
  C   C825      1.0  0.16750226375915783  0.16141142828529687  0.7542663051529361  1.0000
  C   C826      1.0  0.18147385730222135  0.14484979421966115  0.7396999537571639  1.0000
  O   O255      1.0  0.20386027831484899  0.14288567818865355  0.7458237001399157  1.0000
  C   C827      1.0  0.18131453827058636  0.18543073850895864  0.7597368519215277  1.0000
  C   C828      1.0  0.18046890528282786  0.1954429307671899  0.739879583651058  1.0000
  O   O256      1.0  0.18377665415806155  0.1828419359318308  0.7221942040976708  1.0000
  O   O257      1.0  0.17592456191124073  0.215598314264784  0.7413819427636263  1.0000
  N   N234      1.0  0.1692287307070037  0.13259424936705547  0.7206918449851023  1.0000
  C   C829      1.0  0.18193175444656812  0.11551180674050203  0.7070073130684464  1.0000
  C   C830      1.0  0.20288026637560966  0.12554556728644453  0.6970950089235655  1.0000
  O   O258      1.0  0.2204380442218234  0.11428461552192704  0.692277661769134  1.0000
  C   C831      1.0  0.16043552496461075  0.10257766628923978  0.6893709234861212  1.0000
  C   C832      1.0  0.1415755941192034  0.1194776275577322  0.6881625041999249  1.0000
  C   C833      1.0  0.1425289897025922  0.1321422091888498  0.7116613603193378  1.0000
  N   N235      1.0  0.20170384671764607  0.14631227207663317  0.6938453408431184  1.0000
  C   C834      1.0  0.2221753938810915  0.15667925912151814  0.685141455984434  1.0000
  C   C835      1.0  0.2459236453536423  0.1629185653846912  0.702173635923661  1.0000
  O   O259      1.0  0.2669449621994651  0.15994700471622733  0.6968337290779014  1.0000
  C   C836      1.0  0.21363671383480282  0.1771252987239074  0.6767641709328296  1.0000
  C   C837      1.0  0.2361305289852848  0.19156495842934992  0.6735961528041526  1.0000
  C   C838      1.0  0.19504750445978583  0.16895943189100956  0.6554208735401453  1.0000
  N   N236      1.0  0.2430222288943705  0.17130393614958986  0.723010703615371  1.0000
  C   C839      1.0  0.2643463663735358  0.17576541901868403  0.7406307632073422  1.0000
  C   C840      1.0  0.27170659641500966  0.15434308581598571  0.7470647794068201  1.0000
  O   O260      1.0  0.29324580108701487  0.15412351999970278  0.7565688337928509  1.0000
  C   C841      1.0  0.2585611084715052  0.19209381259310082  0.7612718710148042  1.0000
  C   C842      1.0  0.2501816380847215  0.21427594731974667  0.7576302831658611  1.0000
  C   C843      1.0  0.25509221979044405  0.2218814709399863  0.7396019738150399  1.0000
  C   C844      1.0  0.23733238362035408  0.22747386552899282  0.7724905743880055  1.0000
  C   C845      1.0  0.24714597033760927  0.24203184420829818  0.736254325792469  1.0000
  C   C846      1.0  0.2295758243827196  0.2478585117692773  0.7691592563557885  1.0000
  C   C847      1.0  0.23463494052591488  0.25507281280054833  0.7513432368795694  1.0000
  N   N237      1.0  0.25428404513572844  0.13661500194155501  0.7424270621462827  1.0000
  C   C848      1.0  0.25733746191919227  0.11698479487342874  0.7515065367831093  1.0000
  C   C849      1.0  0.26427529547501805  0.12478206847617274  0.7762628021597806  1.0000
  O   O261      1.0  0.2834851726839765  0.11979657953767536  0.7861751063046616  1.0000
  C   C850      1.0  0.27696721779367234  0.10273646662454708  0.7411533228986704  1.0000
  C   C851      1.0  0.27734297860493545  0.08029971817898178  0.7472770692814221  1.0000
  O   O262      1.0  0.25867940305843107  0.07335297759421251  0.7547235448828483  1.0000
  O   O263      1.0  0.29620863674999753  0.06967659963618791  0.7448275707283214  1.0000
  N   N238      1.0  0.2484054466073356  0.13788869841728124  0.7862567562564315  1.0000
  C   C852      1.0  0.25385547577861217  0.14741676667677453  0.8097066224047824  1.0000
  C   C853      1.0  0.2292843206476718  0.15109180762064559  0.818737107070547  1.0000
  O   O264      1.0  0.21006431350686394  0.15347263998417227  0.8070121739963716  1.0000
  C   C854      1.0  0.2711858972311031  0.16961486469022444  0.815193499163728  1.0000
  N   N239      1.0  0.2301868131956708  0.15137377539301933  0.8397864646368591  1.0000
  C   C855      1.0  0.2088038448288544  0.15568175350630314  0.8514297477592645  1.0000
  C   C856      1.0  0.21360194663494958  0.1785269962514448  0.8679230380168095  1.0000
  O   O265      1.0  0.23515356047032032  0.1868769955815498  0.876708572827264  1.0000
  C   C857      1.0  0.20251001379146696  0.13672653540956917  0.8628280810263599  1.0000
  O   O266      1.0  0.20182245778610083  0.11519843043340423  0.8483923695534197  1.0000
  N   N240      1.0  0.19285664888384063  0.18847725266863574  0.8712380260586724  1.0000
  C   C858      1.0  0.1914157131750526  0.2104700543123637  0.8856247475605505  1.0000
  C   C859      1.0  0.17596836337076013  0.20588823980058887  0.9029835273068576  1.0000
  O   O267      1.0  0.1568621736454674  0.19202635226533651  0.8977579303935761  1.0000
  C   C860      1.0  0.17861981624709553  0.22557619560604109  0.8720381955860186  1.0000
  C   C861      1.0  0.17292311738783078  0.24835521082104922  0.8848245780332044  1.0000
  C   C862      1.0  0.15365573681804154  0.25021907430844786  0.897153720750478  1.0000
  C   C863      1.0  0.18622183647032908  0.2680318042657729  0.8830772690653258  1.0000
  C   C864      1.0  0.1480505247849694  0.2712359201791988  0.9082091242201391  1.0000
  C   C865      1.0  0.18081551374277394  0.2890813285442531  0.8941979924964031  1.0000
  C   C866      1.0  0.16171210888887458  0.2906195356133273  0.9068047450496948  1.0000
  N   N241      1.0  0.18441557934829014  0.21685613737505416  0.9235593151529037  1.0000
  C   C867      1.0  0.1709021472195719  0.2137241869319909  0.9413263446580609  1.0000
  C   C868      1.0  0.17287369033106686  0.23615301787801338  0.9581952246937477  1.0000
  O   O268      1.0  0.18852143551575473  0.2520333300239959  0.9583095346262258  1.0000
  C   C869      1.0  0.18118401235844686  0.1955554726447621  0.952316428166306  1.0000
  C   C870      1.0  0.17925791854261672  0.17241754212725027  0.9373581570020377  1.0000
  N   N242      1.0  0.15685142492969825  0.15850770755088622  0.9304179111015857  1.0000
  C   C871      1.0  0.19715881295425092  0.16064420359835088  0.928229692394149  1.0000
  C   C872      1.0  0.16100950302360492  0.13926433620442114  0.9175662086929839  1.0000
  N   N243      1.0  0.18534269451909235  0.14013276918298873  0.9159658696382914  1.0000
  N   N244      1.0  0.15685481937977497  0.23708911528266463  0.97267992613775  1.0000
  C   C873      1.0  0.15675426023100678  0.25752718979640393  0.989875405980517  1.0000
  C   C874      1.0  0.1807444504379669  0.2619142802831216  0.0063360362573538515  1.0000
  O   O269      1.0  0.19022126777538123  0.2815123132405117  0.014990931144976382  1.0000
  C   C875      1.0  0.13373073248127712  0.2556610138103698  0.0013553891993823963  1.0000
  C   C876      1.0  0.11407608722965148  0.27079688824400144  0.9951663228552146  1.0000
  C   C877      1.0  0.10827328833776698  0.26711079436081225  0.9703447375171274  1.0000
  C   C878      1.0  0.0903238595557856  0.2666096602993417  0.004850007135139417  1.0000
  N   N245      1.0  0.19070564809852836  0.2439266723422857  0.01084311359505917  1.0000
  C   C879      1.0  0.21468642664507565  0.24534943441382542  0.02483791532844126  1.0000
  C   C880      1.0  0.23500048423660605  0.23973026135980427  0.010565503759041087  1.0000
  O   O270      1.0  0.23062674713407644  0.22468109326699198  0.9935496538101681  1.0000
  C   C881      1.0  0.21368968095429017  0.22899301094686197  0.039877836444479654  1.0000
  C   C882      1.0  0.19299633334103794  0.23186115974517382  0.0543951978691899  1.0000
  C   C883      1.0  0.16726054847103575  0.21952618369055946  0.042213025065102334  1.0000
  N   N246      1.0  0.16933782436254666  0.19743898674484034  0.02777731359216212  1.0000
  C   C884      1.0  0.1536434087308868  0.18797274955658044  0.009406074443906749  1.0000
  N   N247      1.0  0.13452071518450398  0.1984193152743778  0.002808758340888821  1.0000
  N   N248      1.0  0.15710942476698644  0.16793266358561712  0.9975831614276073  1.0000
  N   N249      1.0  0.25724310628004954  0.25160875318820575  0.017669049563033164  1.0000
  C   C885      1.0  0.2784892151959511  0.24756408653342724  0.005960446479211742  1.0000
  C   C886      1.0  0.2876832720165234  0.26827414654291826  0.9985792908392016  1.0000
  O   O271      1.0  0.2761911740301015  0.2851685361044356  0.0003919197684961145  1.0000
  N   N250      1.0  0.30914579165220113  0.2665493565986904  0.9903163157200752  1.0000
  C   C887      1.0  0.3205544021188204  0.2851552278471816  0.982739200195817  1.0000
  C   C888      1.0  0.31042281070821337  0.2844414987592669  0.9591586941246341  1.0000
  O   O272      1.0  0.3139873243600043  0.3016513958083977  0.952316428166306  1.0000
  C   C889      1.0  0.34946850673581425  0.28536041474351437  0.9854173186138737  1.0000
  C   C890      1.0  0.3594225716774739  0.26444591967181186  0.9719287465814658  1.0000
  C   C891      1.0  0.3607086370073843  0.26467970264196633  0.9477277008768308  1.0000
  N   N251      1.0  0.37422090079594517  0.24640023964592084  0.9368355973107095  1.0000
  C   C892      1.0  0.3671331715584527  0.22437506883144592  0.9338308790855727  1.0000
  N   N252      1.0  0.34618639929721695  0.21735267973318587  0.9405098451403606  1.0000
  N   N253      1.0  0.3809787074485742  0.2092415734843142  0.9238859149599837  1.0000
  N   N254      1.0  0.2979342161132418  0.26506105224327403  0.9467479014555904  1.0000
  C   C893      1.0  0.29069798127596214  0.26238175593322666  0.9233306952879476  1.0000
  C   C894      1.0  0.2734253567672014  0.27989759671929226  0.9185133481335161  1.0000
  O   O273      1.0  0.2754203659511092  0.2884328847959222  0.9028365573936716  1.0000
  C   C895      1.0  0.2779566300479771  0.238538946241872  0.9128141814999685  1.0000
  C   C896      1.0  0.2703357556045667  0.23479799659644238  0.8884335059014394  1.0000
  C   C897      1.0  0.2930071667652315  0.23592972203475804  0.8765126129430159  1.0000
  O   O274      1.0  0.31104889550247466  0.22530001830299273  0.8812483101456773  1.0000
  O   O275      1.0  0.2927866103470922  0.24719008861924327  0.8622728613543238  1.0000
  N   N255      1.0  0.2566549501455287  0.28581100391502295  0.9320509101369862  1.0000
  C   C898      1.0  0.2394182684588683  0.30237359916996565  0.9283603323169811  1.0000
  C   C899      1.0  0.25334967200459496  0.325252015212665  0.9293727917189294  1.0000
  O   O276      1.0  0.24269171022404412  0.33864229265564333  0.9201300171785627  1.0000
  C   C900      1.0  0.22051503449715815  0.3049396868016571  0.9447719726227558  1.0000
  C   C901      1.0  0.23188178150956223  0.3104992555120308  0.9686627485106648  1.0000
  C   C902      1.0  0.21199350703231154  0.31773419693563815  0.982886170109003  1.0000
  C   C903      1.0  0.22394471172731661  0.3276646169028753  0.006499336160893899  1.0000
  N   N256      1.0  0.23479242590769447  0.3098522723619895  0.016607600190022852  1.0000
  N   N257      1.0  0.27702788097669023  0.3299663227822214  0.9399382954779705  1.0000
  C   C904      1.0  0.29087191917674793  0.35177015305713105  0.9414569845808929  1.0000
  C   C905      1.0  0.3001498294012639  0.3534165967572213  0.9202933170821027  1.0000
  O   O277      1.0  0.3085222382042673  0.3720785656038923  0.9183010582589142  1.0000
  C   C906      1.0  0.3136927230843236  0.35681725412008347  0.9597792337580863  1.0000
  C   C907      1.0  0.30661325681189666  0.36136086121825073  0.9825595703019229  1.0000
  C   C908      1.0  0.3016359511504019  0.38288102499253335  0.9930597540995479  1.0000
  C   C909      1.0  0.3048393637858855  0.3440848032268508  0.993370023916274  1.0000
  C   C910      1.0  0.2952542719896976  0.38692947903941205  0.013847831820196046  1.0000
  C   C911      1.0  0.29842762229846276  0.3481001601556288  0.014223421598338157  1.0000
  C   C912      1.0  0.2935932280573086  0.36941571751002866  0.02442966556959114  1.0000
  N   N258      1.0  0.2993074107270666  0.33463880708816923  0.9045512063808421  1.0000
  N   N259      1.0  0.29912122206279185  0.3345642862336463  0.9047145062843822  1.0000
  C   C913      1.0  0.30766366498052045  0.3354618005842714  0.8837794586505481  1.0000
  C   C914      1.0  0.30702008732774844  0.3355436012811874  0.8839100985733801  1.0000
  C   C915      1.0  0.2878425336519718  0.34469488305236196  0.8697193369557499  1.0000
  C   C916      1.0  0.28735880447909173  0.34552695011289664  0.8704868465023882  1.0000
  O   O278      1.0  0.2656186546906727  0.33637746695177195  0.8661593990585769  1.0000
  O   O279      1.0  0.26480376324428384  0.33851315887242595  0.8680700079299954  1.0000
  C   C917      1.0  0.3127947035878513  0.31189929341539735  0.8717442557596465  1.0000
  C   C918      1.0  0.3113109764952501  0.31209017757123697  0.8711890360876103  1.0000
  C   C919      1.0  0.33442508248169506  0.30297638937706317  0.8839427585540881  1.0000
  C   C920      1.0  0.3287551851880914  0.31356459808095954  0.8549570256757296  1.0000
  O   O280      1.0  0.35125135472030006  0.3160163587824918  0.8967781309723358  1.0000
  O   O281      1.0  0.3355151660399853  0.29649574924630284  0.8434443824761563  1.0000
  N   N260      1.0  0.3341462390705926  0.28062953989279243  0.879974570898065  1.0000
  N   N261      1.0  0.3366485149829237  0.334521092661952  0.8540588762062593  1.0000
  N   N262      1.0  0.2960195527469604  0.36160975612814744  0.8612930619330834  1.0000
  C   C921      1.0  0.2784507717045187  0.37288882191202594  0.8489149292447479  1.0000
  C   C922      1.0  0.26509110487251697  0.35751710443474277  0.8273593419774615  1.0000
  O   O282      1.0  0.24560305167390553  0.3630463691203047  0.818377847282759  1.0000
  C   C923      1.0  0.2920488078112156  0.3941028611845379  0.8446201417816446  1.0000
  C   C924      1.0  0.3116082476933643  0.3895546339771099  0.8296945305980843  1.0000
  N   N263      1.0  0.3370871359105091  0.39122000993411865  0.8372553161319884  1.0000
  C   C925      1.0  0.3094628521629661  0.3844701345153709  0.8076490436201778  1.0000
  C   C926      1.0  0.3496546752959344  0.3868339662233296  0.8204680860480715  1.0000
  N   N264      1.0  0.33332957143226344  0.38295375267830084  0.8023417967551263  1.0000
  N   N265      1.0  0.2746497258809192  0.3382509609621416  0.8190473768872731  1.0000
  C   C927      1.0  0.26321410061499895  0.32388533210940385  0.7978347194174209  1.0000
  C   C928      1.0  0.2355206086325974  0.31582117841840474  0.7973448197068007  1.0000
  O   O283      1.0  0.2211045209516743  0.3113140038261346  0.7798717300280157  1.0000
  C   C929      1.0  0.27833918027121235  0.30362200710702886  0.7915313431407751  1.0000
  C   C930      1.0  0.2817723837344803  0.2887815134728319  0.808171603311506  1.0000
  C   C931      1.0  0.2945375623293239  0.26754972189505877  0.7987655288675992  1.0000
  N   N266      1.0  0.2964154004131447  0.2519022695274382  0.8132175703308934  1.0000
  C   C932      1.0  0.3067796441450984  0.23245912592911921  0.8088248029256662  1.0000
  N   N267      1.0  0.3160446431608016  0.22610099169150805  0.7903882438159947  1.0000
  N   N268      1.0  0.30810936378924286  0.21939867771300467  0.8229012546108182  1.0000
  N   N269      1.0  0.22735818056118348  0.31484408539486725  0.8161732985849683  1.0000
  C   C933      1.0  0.20153997814068345  0.3056026240157657  0.8161732985849683  1.0000
  C   C934      1.0  0.18190595588463082  0.32186370528660585  0.8129236305045213  1.0000
  O   O284      1.0  0.1597250888239105  0.3141160582700417  0.8060323745751313  1.0000
  C   C935      1.0  0.19963139306665256  0.29870141809167605  0.8376309059101306  1.0000
  C   C936      1.0  0.21468835517778972  0.27956496047282053  0.8401620544150012  1.0000
  C   C937      1.0  0.2381140505768592  0.2809790248047742  0.8517400175759906  1.0000
  C   C938      1.0  0.2071439091202897  0.2559776352150603  0.8307396499807406  1.0000
  N   N270      1.0  0.24571625431516056  0.25967319767071395  0.8500416985791741  1.0000
  C   C939      1.0  0.22706959555972617  0.2440474802448936  0.8371899961705724  1.0000
  C   C940      1.0  0.1853161223240023  0.24382626347389244  0.8177083176782447  1.0000
  C   C941      1.0  0.22590149416494856  0.22045801384616912  0.8310009298264046  1.0000
  C   C942      1.0  0.18431182595870246  0.22060751715111124  0.8112906314691208  1.0000
  C   C943      1.0  0.20451366741210683  0.20908356316507062  0.8179859275142628  1.0000
  N   N271      1.0  0.18939611747565538  0.34401904254947985  0.8176429977168287  1.0000
  C   C944      1.0  0.1721872758175667  0.36141762072920386  0.8224766748616141  1.0000
  C   C945      1.0  0.16749465617964335  0.373071060805397  0.8035992060123847  1.0000
  O   O285      1.0  0.18461440804795345  0.3856422702081125  0.7997943182599014  1.0000
  C   C946      1.0  0.18338413336765183  0.37862377308733136  0.8437383223025283  1.0000
  C   C947      1.0  0.18968554231296147  0.3687317934067989  0.8632853207562721  1.0000
  C   C948      1.0  0.21125884698578865  0.3587654499342399  0.8688375174766336  1.0000
  C   C949      1.0  0.1743967998174151  0.36791324395870395  0.880105210820897  1.0000
  N   N272      1.0  0.2099016114740053  0.3520526634928684  0.8879436061908192  1.0000
  C   C950      1.0  0.18759482964881607  0.357410842290602  0.8951451319369353  1.0000
  C   C951      1.0  0.1510136252867993  0.37534164368466166  0.8839917485251501  1.0000
  C   C952      1.0  0.1780388759222702  0.35398059907426127  0.9136306810176688  1.0000
  C   C953      1.0  0.14148525799073058  0.37187081415264156  0.9023139977023434  1.0000
  C   C954      1.0  0.15501659252321515  0.3612588294322052  0.9169130090788237  1.0000
  N   N273      1.0  0.14425340770646355  0.3691904142548218  0.7920212428513952  1.0000
  C   C955      1.0  0.136981136496779  0.3799192285760533  0.774319533307654  1.0000
  C   C956      1.0  0.12436718385921694  0.40136316336039507  0.7816680289669562  1.0000
  O   O286      1.0  0.12491409517301685  0.41056700739393176  0.8011007174882219  1.0000
  N   N274      1.0  0.11314365321830304  0.40952149829461737  0.7655993184586155  1.0000
  C   C957      1.0  0.10087757435454855  0.4300481823446048  0.7692572362979125  1.0000
  C   C958      1.0  0.11921301549087143  0.45045053330104334  0.7822069186486383  1.0000
  O   O287      1.0  0.14216746067920563  0.45041002786840323  0.7833010280023567  1.0000
  N   N275      1.0  0.1087829219054073  0.4682720798785081  0.7923151826777672  1.0000
  C   C959      1.0  0.12431498799925456  0.4890423484104362  0.8046279954046869  1.0000
  C   C960      1.0  0.11367287157657888  0.4979206169086877  0.825595703019229  1.0000
  O   O288      1.0  0.09423973416783352  0.5077514648749906  0.8251221332989629  1.0000
  C   C961      1.0  0.12511029682423377  0.5067382963560733  0.7910741034108629  1.0000
  C   C962      1.0  0.14354328687707013  0.5275417904782485  0.8019988669576921  1.0000
  C   C963      1.0  0.14452031211165914  0.5447683550591975  0.7886735948288243  1.0000
  O   O289      1.0  0.1551596870213737  0.541577399932122  0.7722619545230495  1.0000
  N   N276      1.0  0.13309801292423126  0.5631314696548982  0.7952709109318421  1.0000
  N   N277      1.0  0.1257415677630142  0.49505737356985136  0.8441792320420864  1.0000
  C   C964      1.0  0.1147547704222593  0.5015868886370982  0.8642977801582203  1.0000
  C   C965      1.0  0.11765457071263426  0.5271544692739235  0.8728220351230108  1.0000
  O   O290      1.0  0.13345681713674884  0.5395337953339778  0.8673188283737112  1.0000
  C   C966      1.0  0.12957459834416638  0.4897995613082702  0.8800562208498349  1.0000
  C   C967      1.0  0.1540847767506611  0.48576555747278843  0.8714339859429204  1.0000
  C   C968      1.0  0.14778541424508201  0.4823009326013108  0.8467757005083733  1.0000
  N   N278      1.0  0.10152253533121237  0.5349095911928915  0.8863595971264808  1.0000
  C   C969      1.0  0.10012203735297744  0.5591718721281117  0.8942633124578191  1.0000
  C   C970      1.0  0.12591094166493413  0.5725052858436142  0.9040449766798679  1.0000
  O   O291      1.0  0.13161544688750018  0.5910381350178147  0.9000114690624288  1.0000
  C   C971      1.0  0.08206484928095191  0.5629450148830347  0.911164852474214  1.0000
  C   C972      1.0  0.07867900533804964  0.5879419557211594  0.9194441575836945  1.0000
  C   C973      1.0  0.06701841596348793  0.596258543992599  0.9001747689659688  1.0000
  C   C974      1.0  0.06210871895498853  0.591114873008331  0.9376357668380557  1.0000
  N   N279      1.0  0.14153029136975864  0.5638254809889848  0.9173539188183819  1.0000
  C   C975      1.0  0.1661542910874155  0.5763815549340466  0.9272498929729087  1.0000
  C   C976      1.0  0.18266068504697272  0.5790680550914579  0.9099401031976637  1.0000
  O   O292      1.0  0.19866967782478315  0.5955294605002522  0.9134510511237747  1.0000
  C   C977      1.0  0.1796343245872733  0.5651042781686254  0.9442004229603657  1.0000
  C   C978      1.0  0.18305372804239864  0.5399564114247835  0.9368355973107095  1.0000
  C   C979      1.0  0.2038819638607189  0.530981416127148  0.9293727917189294  1.0000
  C   C980      1.0  0.16575097671969918  0.5210320970124965  0.9373091670309757  1.0000
  N   N280      1.0  0.20018115532950534  0.5077533772931558  0.924571774554852  1.0000
  C   C981      1.0  0.1769368799902206  0.5011855216365728  0.9292421517960974  1.0000
  C   C982      1.0  0.14139473601313338  0.518925928876611  0.9428613637513373  1.0000
  C   C983      1.0  0.16485989124899494  0.47934662916385173  0.9271192530500767  1.0000
  C   C984      1.0  0.1295113636249063  0.497382607559753  0.9408691049281487  1.0000
  C   C985      1.0  0.1412073542777435  0.4778604324710396  0.9329163996257483  1.0000
  N   N281      1.0  0.1791444468392221  0.5631318832928313  0.8913402441844522  1.0000
  C   C986      1.0  0.19294054742504668  0.5652814688351997  0.8735242247082331  1.0000
  C   C987      1.0  0.18131321502009645  0.5813384242808106  0.8608521521935253  1.0000
  O   O293      1.0  0.1949943164214693  0.5954862003406937  0.8551203255792696  1.0000
  C   C988      1.0  0.1942226407763645  0.5417196373209899  0.8587129234571507  1.0000
  C   C989      1.0  0.2098750748310657  0.5276560314529302  0.8715319658850444  1.0000
  C   C990      1.0  0.20582012528453217  0.5437131582562122  0.8382841055242907  1.0000
  C   C991      1.0  0.23574520204253305  0.5398775751788278  0.8831915789978039  1.0000
  N   N282      1.0  0.15616095449101075  0.5796345888539118  0.856312414875112  1.0000
  C   C992      1.0  0.1436548888898459  0.5955086489346726  0.8455509512318229  1.0000
  C   C993      1.0  0.15142924557711201  0.6199316335850569  0.8584679736018406  1.0000
  O   O294      1.0  0.15678937237510818  0.6349791031340438  0.8490782291482879  1.0000
  C   C994      1.0  0.11499949371681951  0.5902545623653376  0.8430687926980142  1.0000
  O   O295      1.0  0.1078662892935038  0.5665971935949937  0.8336953782348154  1.0000
  C   C995      1.0  0.10140229212240524  0.6043458697057765  0.8293026108295881  1.0000
  N   N283      1.0  0.15230331986541512  0.624170633960443  0.8800888808305429  1.0000
  C   C996      1.0  0.15967499530558302  0.6471034584646614  0.8936264428340129  1.0000
  C   C997      1.0  0.1867163478580731  0.6553925593224901  0.8919117938468424  1.0000
  O   O296      1.0  0.1912939861258579  0.672957441514703  0.8859023573965686  1.0000
  C   C998      1.0  0.15647283906607806  0.6478415393419837  0.9173049288473198  1.0000
  N   N284      1.0  0.20474849921633384  0.6425143118178042  0.8965985010784417  1.0000
  C   C999      1.0  0.23146170643347466  0.6490151691113751  0.8961575913388836  1.0000
  C   C1000     1.0  0.23588165655024831  0.6538294675766654  0.8742427442838092  1.0000
  O   O297      1.0  0.249330376198196  0.6709947053833739  0.8736385346407111  1.0000
  C   C1001     1.0  0.24715624767169286  0.6303675030051974  0.9013831882521652  1.0000
  O   O298      1.0  0.24288813974685383  0.6265109274129693  0.9220569560403352  1.0000
  C   C1002     1.0  0.2754372272640115  0.6371132152069984  0.9027875674226096  1.0000
  N   N285      1.0  0.22417650243454668  0.6391255401114208  0.8559694850776779  1.0000
  C   C1003     1.0  0.22759168432694968  0.6426721942181854  0.8345118777525156  1.0000
  C   C1004     1.0  0.21718360161108946  0.6639641849112309  0.8302660802604744  1.0000
  O   O299      1.0  0.2252729763674719  0.6726334887126422  0.8163855884595703  1.0000
  C   C1005     1.0  0.2151397893657223  0.6225499031351096  0.8162712785270922  1.0000
  C   C1006     1.0  0.22804248606418565  0.6009280832152  0.8156833988743482  1.0000
  C   C1007     1.0  0.215472286100827  0.581931384385772  0.7964140102566225  1.0000
  C   C1008     1.0  0.22926908275166294  0.5607327565139638  0.794617711317682  1.0000
  N   N286      1.0  0.252151524004484  0.5614472327324174  0.7833336879830647  1.0000
  N   N287      1.0  0.19937757321989558  0.6725941013473774  0.8415011136240297  1.0000
  C   C1009     1.0  0.18862977797438588  0.6928813404300314  0.8377778758233166  1.0000
  C   C1010     1.0  0.19810717003087863  0.713727162297236  0.85601847504874  1.0000
  O   O300      1.0  0.18712790153210512  0.7309074593821412  0.8571289143928122  1.0000
  C   C1011     1.0  0.15977822908707084  0.6892455344925111  0.8344628877814536  1.0000
  C   C1012     1.0  0.1492973708979839  0.6728393179697071  0.8124500607842552  1.0000
  C   C1013     1.0  0.12119476100339421  0.6660943623056098  0.8095269925108883  1.0000
  O   O301      1.0  0.10628668829413225  0.6805250530319985  0.8130052804562913  1.0000
  N   N288      1.0  0.1137318553495476  0.643945515053493  0.8027827064946844  1.0000
  N   N289      1.0  0.21794977287722192  0.7125014126781934  0.8703398765892021  1.0000
  C   C1014     1.0  0.23009081049300098  0.732045075171579  0.8869801367599329  1.0000
  C   C1015     1.0  0.22063315051503912  0.7350834628453836  0.9086663639500513  1.0000
  O   O302      1.0  0.22779423126139486  0.7525791769432704  0.9229551055098055  1.0000
  N   N290      1.0  0.20475761379384633  0.7187700380745315  0.9115731022330642  1.0000
  C   C1016     1.0  0.19329611716232384  0.7205073131504456  0.9313323905614099  1.0000
  C   C1017     1.0  0.20713481118427648  0.7065721180062599  0.945131232410544  1.0000
  O   O303      1.0  0.20727442165772453  0.6859123841243804  0.9380930065679679  1.0000
  C   C1018     1.0  0.16492925227525912  0.7125581524526773  0.9257475338603403  1.0000
  C   C1019     1.0  0.15361330495494108  0.7119990984806376  0.9462580017449703  1.0000
  C   C1020     1.0  0.15146474021439565  0.7278315350613831  0.9125692316446584  1.0000
  N   N291      1.0  0.21894017879519603  0.7176950001180105  0.9648088707871197  1.0000
  C   C1021     1.0  0.23461563804613614  0.705964959930612  0.9780851529449256  1.0000
  C   C1022     1.0  0.21843558134885638  0.6909843935664228  0.9884057068486566  1.0000
  O   O304      1.0  0.20078043389627698  0.6982066262079837  0.9976158214083153  1.0000
  C   C1023     1.0  0.25320796283725866  0.7224962517894937  0.9957052125368967  1.0000
  C   C1024     1.0  0.27577084824939424  0.7107011593200369  0.0036252578585890594  1.0000
  C   C1025     1.0  0.2939861700864151  0.7257637118495601  0.022878316485960688  1.0000
  N   N292      1.0  0.31912627689885775  0.7177870447394236  0.02459296547313119  1.0000
  C   C1026     1.0  0.3373968157954589  0.7254983924258193  0.04152716547023414  1.0000
  N   N293      1.0  0.3334231960703366  0.7413866171833343  0.05841237549627507  1.0000
  N   N294      1.0  0.35962540076829824  0.7172390865922269  0.041641475402712166  1.0000
  N   N295      1.0  0.22486238159555585  0.6701828026396764  0.9871482975913982  1.0000
  C   C1027     1.0  0.2118332148800519  0.6539347203891079  0.996603362006367  1.0000
  C   C1028     1.0  0.22879877887075784  0.6506194558708231  0.016411640305774796  1.0000
  O   O305      1.0  0.25170548039407115  0.649953792704574  0.016313660363650766  1.0000
  C   C1029     1.0  0.20445970522224075  0.6312135394980474  0.9798814518838661  1.0000
  N   N296      1.0  0.21767080038620124  0.6496183488852102  0.033754090061727866  1.0000
  C   C1030     1.0  0.2302638867895832  0.6411923060335825  0.05125983972122098  1.0000
  C   C1031     1.0  0.23167976093534356  0.6159705465007749  0.04386235409085682  1.0000
  O   O306      1.0  0.21810245346005425  0.6043107830679135  0.027516033746498043  1.0000
  N   N297      1.0  0.24884081638084238  0.6073696589595686  0.05563627713609426  1.0000
  C   C1032     1.0  0.2503020146754325  0.5830368682122862  0.05049233017458276  1.0000
  C   C1033     1.0  0.22698841556339244  0.5714127045681614  0.056387456692378476  1.0000
  O   O307      1.0  0.2217861673492939  0.5765817739333378  0.07513428561877596  1.0000
  C   C1034     1.0  0.274398690424179  0.5772389297164295  0.06249487308477626  1.0000
  O   O308      1.0  0.2956552553797079  0.5873544433701808  0.05529334733866016  1.0000
  C   C1035     1.0  0.2749765111914239  0.5514586586905178  0.0574815660460968  1.0000
  N   N298      1.0  0.21290221923461922  0.5560035268078098  0.04010645630943572  1.0000
  C   C1036     1.0  0.18842382561537843  0.5450716477324525  0.041641475402712166  1.0000
  C   C1037     1.0  0.19037749953508964  0.5257016926780852  0.05289283875662146  1.0000
  O   O309      1.0  0.1714617381577535  0.5177652264671887  0.058738975303355166  1.0000
  C   C1038     1.0  0.17343037251848833  0.5356608610780579  0.018795818897459494  1.0000
  C   C1039     1.0  0.15962152150474135  0.5528415578745774  0.009520384376384783  1.0000
  C   C1040     1.0  0.1685748572324763  0.5755067363456725  0.015497160845950528  1.0000
  C   C1041     1.0  0.1374710106795651  0.5461501019598095  0.9950356829323825  1.0000
  C   C1042     1.0  0.1556736414607219  0.5912049715487906  0.0070055658618680475  1.0000
  C   C1043     1.0  0.12447952113581785  0.5618523957944955  0.9865604179386541  1.0000
  C   C1044     1.0  0.13368101316880132  0.5843527167406444  0.9926678343310519  1.0000
  N   N299      1.0  0.21238468416499062  0.5177084532143447  0.05593021696246634  1.0000
  C   C1045     1.0  0.2142027494015103  0.49645482681297465  0.06231524319088221  1.0000
  C   C1046     1.0  0.23243623213475165  0.4997665274050921  0.08338093074754836  1.0000
  O   O310      1.0  0.24956638420705704  0.5154526390061956  0.08893312746790999  1.0000
  C   C1047     1.0  0.22223458192120668  0.4789144344739084  0.04400932400404286  1.0000
  C   C1048     1.0  0.20889642712963188  0.4791870004461101  0.02181686711295038  1.0000
  C   C1049     1.0  0.18311589428798566  0.4730381307351569  0.016329990354004773  1.0000
  C   C1050     1.0  0.22202359062483218  0.48614585033771884  0.006744286016203971  1.0000
  C   C1051     1.0  0.17074714271028307  0.4733616556041097  0.9961951122475169  1.0000
  C   C1052     1.0  0.209725745402907  0.48633845222056893  0.986413448025468  1.0000
  C   C1053     1.0  0.18396682007641366  0.4800614620239667  0.9811388611411245  1.0000
  N   N300      1.0  0.22813852149163796  0.4850192681199862  0.09530182370597186  1.0000
  C   C1054     1.0  0.2424184418005581  0.48736743148294825  0.11685741097325815  1.0000
  C   C1055     1.0  0.24944899180718136  0.4643051541825095  0.11933956950706688  1.0000
  O   O311      1.0  0.23330390489667943  0.447721699588452  0.11414663257449337  1.0000
  C   C1056     1.0  0.22708136098807907  0.49755908365200846  0.13464077046876935  1.0000
  C   C1057     1.0  0.21272252668096303  0.5166949607944141  0.12972544337221392  1.0000
  C   C1058     1.0  0.18999351821667293  0.5148744052401092  0.11671044106007211  1.0000
  C   C1059     1.0  0.22043202552124466  0.5403607846552259  0.13774346863603026  1.0000
  N   N301      1.0  0.18306808140501657  0.5360722432802816  0.11618788136874396  1.0000
  C   C1060     1.0  0.20142443569278937  0.551981565322447  0.1290559137676997  1.0000
  C   C1061     1.0  0.24150829178499122  0.5528588149211542  0.1516402904272883  1.0000
  C   C1062     1.0  0.20286242537427743  0.5755673109169356  0.1338406009414231  1.0000
  C   C1063     1.0  0.2429488730981881  0.576119950873247  0.1563759876299497  1.0000
  C   C1064     1.0  0.22390298676191092  0.5873140280433167  0.1474271529159551  1.0000
  N   N302      1.0  0.2736190007586342  0.46335616234296534  0.12683503507955507  1.0000
  C   C1065     1.0  0.28187431221858905  0.4437399344831751  0.13411821077744118  1.0000
  C   C1066     1.0  0.26578870186356673  0.4384616625940933  0.15072581096746407  1.0000
  O   O312      1.0  0.25790405064777905  0.4537170786543418  0.16367549331818984  1.0000
  C   C1067     1.0  0.30970804266094315  0.4480937327917813  0.14429179476798618  1.0000
  O   O313      1.0  0.3259973986403882  0.4462131827738073  0.12819042427893745  1.0000
  N   N303      1.0  0.26080952035630667  0.41658464847881427  0.1502359112568439  1.0000
  C   C1068     1.0  0.2418469199239055  0.4095481041109647  0.16261404394517953  1.0000
  C   C1069     1.0  0.25002986984422537  0.41859168213846604  0.1871580194472487  1.0000
  O   O314      1.0  0.23405486715183788  0.42229705099391623  0.19955248212593832  1.0000
  C   C1070     1.0  0.23603516007174002  0.3835464925454878  0.15611470778428563  1.0000
  C   C1071     1.0  0.23378207782787347  0.374947108672524  0.13150541232080046  1.0000
  C   C1072     1.0  0.2561867383777283  0.372296175009917  0.16721910122500888  1.0000
  N   N304      1.0  0.2746936120730468  0.42290067373374624  0.1946371550293829  1.0000
  C   C1073     1.0  0.28364946944965047  0.4309203822410912  0.21797271124525572  1.0000
  C   C1074     1.0  0.2820696412298941  0.4561208827231698  0.2268725559881883  1.0000
  O   O315      1.0  0.2906180819781163  0.4647741707606596  0.24620726456732994  1.0000
  C   C1075     1.0  0.31089050096087645  0.42576887482474757  0.22324729812959923  1.0000
  O   O316      1.0  0.3266250715984654  0.43462424761272683  0.21031394576922746  1.0000
  N   N305      1.0  0.2716240970060584  0.46808904515892286  0.21369425377250645  1.0000
  C   C1076     1.0  0.267989564417829  0.4919122373471021  0.22135301924853468  1.0000
  C   C1077     1.0  0.2421258993610393  0.49301061342660657  0.22881582484031487  1.0000
  O   O317      1.0  0.22289013058951077  0.48553118821603347  0.2151966128850749  1.0000
  C   C1078     1.0  0.26980399718217496  0.5051608148077096  0.20373295965656354  1.0000
  C   C1079     1.0  0.29334715858193794  0.500763208972599  0.19311846592646045  1.0000
  C   C1080     1.0  0.26957015558946623  0.5304359170273505  0.21372691375321445  1.0000
  C   C1081     1.0  0.3169976688487213  0.5068631847483085  0.208729936704889  1.0000
  N   N306      1.0  0.24074803706053305  0.5024240408153761  0.24955491258990092  1.0000
  C   C1082     1.0  0.21624185860456813  0.5030402295699316  0.25739330795982324  1.0000
  C   C1083     1.0  0.1994491906189322  0.5180940606575293  0.24730137392104828  1.0000
  O   O318      1.0  0.20832644291251906  0.5347039415940944  0.24168385723927063  1.0000
  C   C1084     1.0  0.22338552020544977  0.5126875445142344  0.2821169133557864  1.0000
  C   C1085     1.0  0.24935982426814093  0.5249535857164759  0.28502365163879934  1.0000
  C   C1086     1.0  0.26204656202806914  0.511975009673152  0.2671423122011641  1.0000
  N   N307      1.0  0.17470868446379292  0.5123437266718699  0.2457336948470638  1.0000
  C   C1087     1.0  0.15615589925480988  0.5249662470938434  0.236180650489971  1.0000
  C   C1088     1.0  0.15989229455372345  0.5500928071978491  0.24762797372812836  1.0000
  O   O319      1.0  0.15607860668106058  0.5646667538675407  0.23719310989191933  1.0000
  C   C1089     1.0  0.12964684922075606  0.5145870175663902  0.2371604499112113  1.0000
  C   C1090     1.0  0.12248681224229176  0.49147343883828604  0.22230015868906697  1.0000
  N   N308      1.0  0.10465931548497935  0.47595044803636083  0.2261377064222581  1.0000
  C   C1091     1.0  0.1304559661022116  0.48133873598332333  0.20342268983983747  1.0000
  C   C1092     1.0  0.10193023242193844  0.45730868676090797  0.21028128578851946  1.0000
  N   N309      1.0  0.11742603900963575  0.46007078784270306  0.19631914403584538  1.0000
  N   N310      1.0  0.16718922985351628  0.5555488641562742  0.2691835609954147  1.0000
  C   C1093     1.0  0.17091817356602287  0.5792057666271394  0.2812677538573782  1.0000
  C   C1094     1.0  0.19294885962440653  0.5921881206553988  0.2748827276289623  1.0000
  O   O320      1.0  0.1920794203305112  0.61219471938824  0.27406622811126213  1.0000
  C   C1095     1.0  0.1750424152876322  0.5804594221857365  0.3056974194269693  1.0000
  C   C1096     1.0  0.15221320998091345  0.5709216188178933  0.3135031548161836  1.0000
  C   C1097     1.0  0.15209301570423758  0.5458169172398238  0.3131928849994575  1.0000
  O   O321      1.0  0.16542914634521977  0.5338710702223209  0.30145162193492814  1.0000
  O   O322      1.0  0.1385393957995285  0.538046550389813  0.32493414806398696  1.0000
  N   N311      1.0  0.21299738372700255  0.5811847468763329  0.27050629021408906  1.0000
  C   C1098     1.0  0.23450599134147532  0.5920558416563854  0.26356604431363706  1.0000
  C   C1099     1.0  0.22805282934001253  0.5949461251081115  0.24039378800130426  1.0000
  O   O323      1.0  0.2384953369383795  0.6111692607976473  0.23487425126165062  1.0000
  C   C1100     1.0  0.2570778091495707  0.5781512599584213  0.2652480333200995  1.0000
  C   C1101     1.0  0.2798704438495354  0.5851565438157347  0.2549274794163685  1.0000
  C   C1102     1.0  0.29235965184995066  0.6092031225062293  0.2659992128763838  1.0000
  N   N312      1.0  0.2989572470892047  0.6121861072352756  0.2895797189475666  1.0000
  C   C1103     1.0  0.30427067314097633  0.6322099110908601  0.3039174504783828  1.0000
  N   N313      1.0  0.30403731166181563  0.6513394742837619  0.29712417449111683  1.0000
  N   N314      1.0  0.3099764281762139  0.63307511326701  0.32513010794823505  1.0000
  N   N315      1.0  0.21124802506151366  0.5793647623913136  0.2265296261907542  1.0000
  C   C1104     1.0  0.20330222036269735  0.5818446577551992  0.20441881925143177  1.0000
  C   C1105     1.0  0.1891105622579929  0.6025868346947266  0.2049740389234679  1.0000
  O   O324      1.0  0.19456652803595836  0.6164705570535758  0.1944085351644268  1.0000
  C   C1106     1.0  0.18708091320405554  0.5604082264636112  0.1908812572479618  1.0000
  C   C1107     1.0  0.20042046114101897  0.5391103881205404  0.19053832745052768  1.0000
  C   C1108     1.0  0.1835939733670008  0.5180045901826268  0.17773561501298796  1.0000
  N   N316      1.0  0.1964118333792455  0.49789849074029796  0.17881339437635224  1.0000
  C   C1109     1.0  0.1876893655105943  0.4770304772234072  0.16749671106102695  1.0000
  N   N317      1.0  0.16592047155886294  0.4735131900233429  0.15413877895145106  1.0000
  N   N318      1.0  0.20069124058912163  0.45969598543285234  0.16960327981669354  1.0000
  N   N319      1.0  0.1712762248095149  0.6053000465448605  0.21780941134171564  1.0000
  C   C1110     1.0  0.1574582213327157  0.6252797336369581  0.22025890989481636  1.0000
  C   C1111     1.0  0.1755200601293603  0.6467703593312972  0.22971397430978513  1.0000
  O   O325      1.0  0.17378148339475413  0.6636415057636176  0.22210419880481894  1.0000
  C   C1112     1.0  0.13683322172358095  0.6231986928269411  0.23464563139669456  1.0000
  C   C1113     1.0  0.11801910731422341  0.6022002559173584  0.22425975753154756  1.0000
  C   C1114     1.0  0.12345439923426803  0.6444151824773996  0.23856482908165572  1.0000
  C   C1115     1.0  0.1029206747337844  0.6028424951895747  0.2021652805825791  1.0000
  N   N320      1.0  0.19323790130804266  0.6464457543924836  0.24633790449016202  1.0000
  C   C1116     1.0  0.2115114689360176  0.6662546268362209  0.2559072788376088  1.0000
  C   C1117     1.0  0.2270849738693544  0.6718666724067629  0.23905472879227585  1.0000
  O   O326      1.0  0.23325905143126677  0.6917682463122484  0.23894041885979783  1.0000
  C   C1118     1.0  0.22875346209299255  0.6621795132048813  0.2755032672624145  1.0000
  C   C1119     1.0  0.21731996123387431  0.6647796495523878  0.2966832647515587  1.0000
  C   C1120     1.0  0.23626742101147769  0.6616695386365037  0.31533211373583214  1.0000
  C   C1121     1.0  0.2072374947743907  0.687892662099217  0.3027416911728945  1.0000
  N   N321      1.0  0.2339029912565812  0.654477738860757  0.2247986472132297  1.0000
  C   C1122     1.0  0.24951013816761006  0.6587102541133962  0.20868094673382698  1.0000
  C   C1123     1.0  0.235035185077402  0.6693127036735037  0.1919263766306181  1.0000
  O   O327      1.0  0.2457204285302426  0.6842744756600854  0.18490448077839605  1.0000
  C   C1124     1.0  0.2588377519861439  0.6365179847512141  0.19752756332204172  1.0000
  O   O328      1.0  0.27463824443013507  0.6285981907757181  0.2135636138496744  1.0000
  C   C1125     1.0  0.27345414711455507  0.6398820337313536  0.17917265416414035  1.0000
  N   N322      1.0  0.21074816435869542  0.6616133415253833  0.18536172050830818  1.0000
  C   C1126     1.0  0.1948537989204233  0.6708264686629662  0.16983189968164963  1.0000
  C   C1127     1.0  0.19208243080831494  0.6955510148865601  0.17972787383617653  1.0000
  O   O329      1.0  0.19357489658741772  0.710014959793546  0.1689827401832414  1.0000
  C   C1128     1.0  0.16915201753562156  0.6562996744991683  0.16298963372332162  1.0000
  C   C1129     1.0  0.17211100663561485  0.6334338007688547  0.1478027426940972  1.0000
  C   C1130     1.0  0.1497776149060672  0.6684990504621474  0.15206487017649242  1.0000
  C   C1131     1.0  0.14860519256813146  0.6165272829017407  0.1433609853178079  1.0000
  N   N323      1.0  0.18861955006084005  0.7009228873579871  0.20061393149894863  1.0000
  C   C1132     1.0  0.1863988261896472  0.7243795798678697  0.2110324653448037  1.0000
  C   C1133     1.0  0.21133581367406268  0.7391397762889652  0.21431479340595863  1.0000
  O   O330      1.0  0.21139815024028796  0.7589069157592979  0.21253482445737212  1.0000
  C   C1134     1.0  0.17699558320483588  0.7257409009881975  0.232653372573506  1.0000
  C   C1135     1.0  0.1508942595944088  0.7136434381151381  0.23102037353810553  1.0000
  C   C1136     1.0  0.1491181947966221  0.7092562618573709  0.25306586051601193  1.0000
  C   C1137     1.0  0.13059968149092852  0.7276920512928656  0.22416177758942352  1.0000
  N   N324      1.0  0.23260162077053273  0.7299374690331752  0.21877288077260193  1.0000
  C   C1138     1.0  0.2569827648351938  0.7435307779363471  0.22185924894950884  1.0000
  C   C1139     1.0  0.2634718552350658  0.747156430239574  0.2001240317883285  1.0000
  O   O331      1.0  0.27443263290654024  0.7653424448277604  0.19912790237673422  1.0000
  C   C1140     1.0  0.2773307550823002  0.7323853567559857  0.23358418202368428  1.0000
  C   C1141     1.0  0.2777130836326626  0.7386851903701708  0.2586670472074356  1.0000
  C   C1142     1.0  0.286572982427184  0.7206258497800907  0.27016336041665495  1.0000
  O   O332      1.0  0.3016373038306801  0.7077775876560695  0.26292917468983085  1.0000
  N   N325      1.0  0.27675687120284914  0.7194421852569597  0.2880283698639362  1.0000
  N   N326      1.0  0.255969706598709  0.7303583963561763  0.18235700228317128  1.0000
  C   C1143     1.0  0.2586753411082033  0.7337040839642546  0.16075242504482298  1.0000
  C   C1144     1.0  0.2437481131746624  0.7527825121991518  0.15580443796755955  1.0000
  O   O333      1.0  0.2526863227775886  0.7665020859816511  0.1464310235043608  1.0000
  C   C1145     1.0  0.2497192050878204  0.7117130047511195  0.14326300537568387  1.0000
  C   C1146     1.0  0.2678396948784855  0.6935713924610626  0.14066653690939712  1.0000
  C   C1147     1.0  0.29344035358853116  0.6965796901688236  0.14608809370692669  1.0000
  C   C1148     1.0  0.26128017077184923  0.6696340589955703  0.13142376236903042  1.0000
  N   N327      1.0  0.30339556398339707  0.6759753925256345  0.1409931367164772  1.0000
  C   C1149     1.0  0.28406102238173087  0.6592522363228492  0.13192999207000455  1.0000
  C   C1150     1.0  0.23837436647206103  0.6559647780467504  0.12254024761645181  1.0000
  C   C1151     1.0  0.28455336647657875  0.635840769236664  0.12407526670972827  1.0000
  C   C1152     1.0  0.23886250595044073  0.6325328084475397  0.11466919226582152  1.0000
  C   C1153     1.0  0.26181948275464106  0.6228444312964864  0.11558367172564578  1.0000
  N   N328      1.0  0.22073629386669932  0.7536845275940558  0.16168323449500124  1.0000
  C   C1154     1.0  0.20523168221877425  0.7714974859053239  0.15779669679074812  1.0000
  C   C1155     1.0  0.21700258997473093  0.795099323258763  0.17038711935368578  1.0000
  O   O334      1.0  0.2095527053032307  0.8117877836814189  0.1646226327587221  1.0000
  C   C1156     1.0  0.17884158875203243  0.7670714743528201  0.16374081327960585  1.0000
  C   C1157     1.0  0.16066172003934737  0.7501290854575015  0.14612075368763472  1.0000
  C   C1158     1.0  0.13751387804852902  0.7422056658559839  0.1555921480929575  1.0000
  C   C1159     1.0  0.15283398084036307  0.7608699947903975  0.12721062485769719  1.0000
  N   N329      1.0  0.2350704899190055  0.7970264833036951  0.18733764934114275  1.0000
  C   C1160     1.0  0.24832150172569611  0.8189151451299174  0.19958514210664632  1.0000
  C   C1161     1.0  0.27268478975169025  0.8252356812051489  0.19127317701645788  1.0000
  O   O335      1.0  0.28600785299925524  0.842939108756772  0.20103851124815275  1.0000
  C   C1162     1.0  0.2544255350835214  0.8192481526820814  0.22394948771482145  1.0000
  O   O336      1.0  0.23472046296958457  0.8073816796858875  0.2310530335188135  1.0000
  N   N330      1.0  0.278867183866579  0.8113561222476745  0.17360412745342474  1.0000
  C   C1163     1.0  0.3004015892825652  0.8165452993022725  0.16298963372332162  1.0000
  C   C1164     1.0  0.2970426806144314  0.8377729466618562  0.15444904876817714  1.0000
  O   O337      1.0  0.2763094276029649  0.8454504835779725  0.15371419920224694  1.0000
  C   C1165     1.0  0.30322469478843583  0.7964120884556072  0.14430812475834018  1.0000
  C   C1166     1.0  0.3163535024376514  0.7769465771463485  0.15074214095781804  1.0000
  C   C1167     1.0  0.3175329086923515  0.7577061510676585  0.13055827288026817  1.0000
  C   C1168     1.0  0.3424881884961547  0.7854610485849605  0.16336522350146374  1.0000
  N   N331      1.0  0.31656131957499994  0.84776720096198  0.1478843926458672  1.0000
  C   C1169     1.0  0.3135267147185695  0.8674599623451111  0.1385273081730225  1.0000
  C   C1170     1.0  0.30052889382539827  0.8604031630013643  0.11489781213077757  1.0000
  O   O338      1.0  0.2974396435115494  0.8404654611233815  0.10447927828492252  1.0000
  C   C1171     1.0  0.3406896039591318  0.877856006875286  0.13999700730488293  1.0000
  C   C1172     1.0  0.355721363815405  0.8581362815587222  0.1385273081730225  1.0000
  C   C1173     1.0  0.34323534484625584  0.8431163374208608  0.1508727808806501  1.0000
  N   N332      1.0  0.29379857378665997  0.877659298956189  0.10645520711775712  1.0000
  C   C1174     1.0  0.2772652015074799  0.8742811947726846  0.08558547944533901  1.0000
  C   C1175     1.0  0.286287251360084  0.8575224101908127  0.06711626035495961  1.0000
  O   O339      1.0  0.2712085931559407  0.8428057929422785  0.0540849280524638  1.0000
  C   C1176     1.0  0.27514778314755367  0.8970876165182644  0.07955971300471125  1.0000
  C   C1177     1.0  0.2549178520110708  0.9100988043814532  0.08983127693738026  1.0000
  O   O340      1.0  0.2430657761279288  0.9026159723072089  0.10292792920129208  1.0000
  O   O341      1.0  0.2509326845871694  0.9282239062021883  0.08475264993728478  1.0000
  N   N333      1.0  0.31070965408604034  0.8596495328440271  0.06528730143531108  1.0000
  C   C1178     1.0  0.3188447735162199  0.8453756585589055  0.046230202692187514  1.0000
  C   C1179     1.0  0.3231186455293363  0.8216799777895755  0.04881034116812026  1.0000
  O   O342      1.0  0.3282074919608381  0.8075720410992608  0.033133550428275683  1.0000
  C   C1180     1.0  0.3428211824295174  0.8565383467462924  0.040661675981471884  1.0000
  C   C1181     1.0  0.3616457809575453  0.8681122841446022  0.06069857414583574  1.0000
  O   O343      1.0  0.3579803539222119  0.8670130134636551  0.07916779323621513  1.0000
  N   N334      1.0  0.3820854812183129  0.8794004520832629  0.05702432631618467  1.0000
  N   N335      1.0  0.32102456480373204  0.8168706229657032  0.06790009989195185  1.0000
  C   C1182     1.0  0.3240785430661645  0.7943766825569223  0.07134572785664685  1.0000
  C   C1183     1.0  0.2995958601873014  0.7814944240097756  0.07343596662195946  1.0000
  O   O344      1.0  0.297177049025003  0.7606361883023315  0.06804706980513789  1.0000
  C   C1184     1.0  0.34299021470450386  0.7959756263321943  0.09193784569304687  1.0000
  C   C1185     1.0  0.36877838302233745  0.8075578523513112  0.09143161599207272  1.0000
  C   C1186     1.0  0.3894962363077029  0.798763987102408  0.10441395832350651  1.0000
  O   O345      1.0  0.3918702269306704  0.8047459580292473  0.12477745629495046  1.0000
  O   O346      1.0  0.4032359804764719  0.7857769416734413  0.09430569429437757  1.0000
  N   N336      1.0  0.2817306294776239  0.7934611589567432  0.08122537202081974  1.0000
  C   C1187     1.0  0.25881925665307376  0.7830849745788616  0.08638564897268525  1.0000
  C   C1188     1.0  0.24407815139168826  0.7665253198881116  0.06607114097230331  1.0000
  O   O347      1.0  0.23633018410207776  0.7736438410141306  0.04992078051219259  1.0000
  C   C1189     1.0  0.24283648566666938  0.8016498455048843  0.0954487936191579  1.0000
  C   C1190     1.0  0.22155494243021537  0.7940099020475653  0.10625924723350905  1.0000
  C   C1191     1.0  0.20558594915194497  0.8129370855481703  0.11386902273847528  1.0000
  N   N337      1.0  0.22067646464711277  0.8339798295776683  0.12582257567760677  1.0000
  C   C1192     1.0  0.22490001969867052  0.8517865215285397  0.11747795060671033  1.0000
  N   N338      1.0  0.21516027853024491  0.8511902358118024  0.09701647269314236  1.0000
  N   N339      1.0  0.23899097627925203  0.8701277823018865  0.12961113343973588  1.0000
  N   N340      1.0  0.2401612305978443  0.7446429910101503  0.06595683103982528  1.0000
  C   C1193     1.0  0.22303555985246373  0.7291282079459929  0.047993841650420026  1.0000
  C   C1194     1.0  0.19622851439814967  0.7357699896854739  0.04719367212307379  1.0000
  O   O348      1.0  0.18878295588085123  0.7473197513556294  0.06322972265070648  1.0000
  C   C1195     1.0  0.22436020430886303  0.705929017242105  0.05343172843830361  1.0000
  C   C1196     1.0  0.2476559281867708  0.7087813026354094  0.07033326845469856  1.0000
  C   C1197     1.0  0.2513140277571284  0.733104496338081  0.08231948137453807  1.0000
  N   N341      1.0  0.18169353224638693  0.7281894032191022  0.027940613495702166  1.0000
  C   C1198     1.0  0.15539416708398426  0.7323648596842547  0.02449498553100716  1.0000
  C   C1199     1.0  0.13706621472096372  0.7120376290575464  0.02402141581074102  1.0000
  O   O349      1.0  0.1149767719112887  0.7149989456170849  0.026144314556761642  1.0000
  C   C1200     1.0  0.14954480914186577  0.7397754072231546  0.0031680181286769258  1.0000
  O   O350      1.0  0.1589599555662912  0.7626885476363331  0.006172736353813804  1.0000
  N   N342      1.0  0.14558576928428532  0.6917126204548415  0.021571917257640304  1.0000
  C   C1201     1.0  0.12888942826616123  0.6711147176441956  0.019612318415159733  1.0000
  C   C1202     1.0  0.14188981293855835  0.6564933568207352  0.03329685033181573  1.0000
  O   O351      1.0  0.16468712785464995  0.6544154849288538  0.0338683999942059  1.0000
  C   C1203     1.0  0.12076476577726583  0.6582305511980379  0.9953622827394626  1.0000
  C   C1204     1.0  0.14332539072377798  0.6505659277155716  0.9843721992312174  1.0000
  C   C1205     1.0  0.10131169324379576  0.6379329062403802  0.9933536939259201  1.0000
  N   N343      1.0  0.1273082332531963  0.6469434108521204  0.04489114348315912  1.0000
  C   C1206     1.0  0.13667152140653863  0.634493850923054  0.06076389410725176  1.0000
  C   C1207     1.0  0.11871583071470433  0.6131509965114715  0.05779183586282289  1.0000
  O   O352      1.0  0.0963798123755377  0.6120630406021457  0.049643170676174506  1.0000
  C   C1208     1.0  0.13851868200547593  0.6488478843575378  0.08431174019772665  1.0000
  C   C1209     1.0  0.15389476161917962  0.6717113552990119  0.08870450760295392  1.0000
  C   C1210     1.0  0.14298239757223055  0.6903043749981351  0.08385450046781451  1.0000
  C   C1211     1.0  0.17923828469838626  0.6746752507086435  0.09771866227836457  1.0000
  C   C1212     1.0  0.15704431412725084  0.7113805682682409  0.08793699805631569  1.0000
  C   C1213     1.0  0.1936012310043066  0.695714706939452  0.10171950991509573  1.0000
  C   C1214     1.0  0.18223182660436862  0.7139047468652742  0.09690216276066432  1.0000
  O   O353      1.0  0.1961995859309638  0.7345542366382284  0.10072338050350144  1.0000
  N   N344      1.0  0.1284873214469621  0.5960769185007542  0.06458511185008887  1.0000
  C   C1215     1.0  0.11258616654682009  0.5755560012177526  0.06425851204300878  1.0000
  C   C1216     1.0  0.12012715412411967  0.5679209728115017  0.08507924974436487  1.0000
  O   O354      1.0  0.14250308052676194  0.5691451664696122  0.0930482850371192  1.0000
  C   C1217     1.0  0.11441722189219329  0.5562698834158866  0.04422161387864493  1.0000
  N   N345      1.0  0.10113898469818935  0.560591207783939  0.09402808445835947  1.0000
  C   C1218     1.0  0.10432783860264641  0.5493357705456968  0.11186043392493268  1.0000
  C   C1219     1.0  0.08796954086651847  0.5267155748491812  0.1046752381691706  1.0000
  O   O355      1.0  0.06622667809155647  0.5253486201375962  0.09507320384101578  1.0000
  C   C1220     1.0  0.09683730144045083  0.5636364612933474  0.1328118115491208  1.0000
  C   C1221     1.0  0.09580599142697  0.5512297429978962  0.15070948097711004  1.0000
  C   C1222     1.0  0.07370721503797881  0.5384894556725881  0.15211386014755446  1.0000
  C   C1223     1.0  0.11688968246322563  0.5522942511264215  0.16617398184235257  1.0000
  C   C1224     1.0  0.07274396373847443  0.5269302491323076  0.16852550045332926  1.0000
  C   C1225     1.0  0.11589847946273658  0.5409197765585554  0.1826672720998974  1.0000
  C   C1226     1.0  0.09394037439514856  0.5282298676535483  0.1837450514632617  1.0000
  N   N346      1.0  0.09833518391308721  0.5089620305251322  0.10926396545864593  1.0000
  C   C1227     1.0  0.08452290435571205  0.48648627072357664  0.10318920904695615  1.0000
  C   C1228     1.0  0.0848216948130964  0.47673249387154  0.12322610721132002  1.0000
  O   O356      1.0  0.10424339331254268  0.479258880197402  0.13663302929195795  1.0000
  C   C1229     1.0  0.09600151090198204  0.47102788979099897  0.08558547944533901  1.0000
  C   C1230     1.0  0.08645278023068295  0.446227890113925  0.08127436199188176  1.0000
  C   C1231     1.0  0.06291011506519989  0.4376833334128517  0.06905952920708619  1.0000
  C   C1232     1.0  0.10140776591253665  0.43127984039138645  0.08914541734251205  1.0000
  C   C1233     1.0  0.0544682062327648  0.414966391918195  0.06512400153177103  1.0000
  C   C1234     1.0  0.09321032304485556  0.4086654114618567  0.08529153961896692  1.0000
  C   C1235     1.0  0.06983034899417084  0.4006547575201872  0.07324000673771142  1.0000
  O   O357      1.0  0.06201358779298122  0.3780644710248794  0.06954942891770634  1.0000
  N   N347      1.0  0.06331710246215308  0.4658519115202659  0.12543065590911065  1.0000
  C   C1236     1.0  0.06220640817127771  0.4539077154574812  0.1426751257229397  1.0000
  C   C1237     1.0  0.05205971214938782  0.4293407469164405  0.13235457181920868  1.0000
  O   O358      1.0  0.03305222016860396  0.4244402085942374  0.1183271101051186  1.0000
  C   C1238     1.0  0.04581469038635936  0.46473206214683643  0.15929905590331656  1.0000
  O   O359      1.0  0.03622592818480843  0.4487384175539339  0.17017482947908372  1.0000
  N   N348      1.0  0.06496194567166867  0.41400097501152255  0.1393111477100147  1.0000
  C   C1239     1.0  0.05607558583554413  0.39001832094411865  0.13266484163593478  1.0000
  C   C1240     1.0  0.03354741885435879  0.38425724795970556  0.1434263052792239  1.0000
  O   O360      1.0  0.022350894246311943  0.36492507201698166  0.13775979862638427  1.0000
  C   C1241     1.0  0.07779017302853115  0.3764182983798288  0.13808639843346435  1.0000
  C   C1242     1.0  0.08634514585741654  0.37921767879542867  0.1625160640030555  1.0000
  C   C1243     1.0  0.0968713126402816  0.40353367353874653  0.17546574635378126  1.0000
  O   O361      1.0  0.10585168704062022  0.41754965589785187  0.1659616919677505  1.0000
  O   O362      1.0  0.09630439969389251  0.4084476295915927  0.19556796447956118  1.0000
  N   N349      1.0  0.026450206336899106  0.40041443676574023  0.1584825563856163  1.0000
  C   C1244     1.0  0.003544749377310664  0.39460366101569044  0.16679452147580476  1.0000
  C   C1245     1.0  0.9815352272404236  0.4048037445728792  0.15629433767817968  1.0000
  O   O363      1.0  0.9854687461430426  0.42153011728290735  0.14896217200923154  1.0000
  C   C1246     1.0  0.007042953031618028  0.4029057988913054  0.19179573670778605  1.0000
  C   C1247     1.0  0.021844609995562165  0.3880368615422007  0.20448413921284778  1.0000
  C   C1248     1.0  0.006115919573400062  0.36629449121726004  0.2055945785569201  1.0000
  O   O364      1.0  0.9899816660307101  0.3563080259445326  0.19048933747946567  1.0000
  N   N350      1.0  0.010782473208243423  0.3593424548685658  0.22367187787880335  1.0000
  N   N351      1.0  0.9577430303895018  0.39543450053546075  0.15511857837269133  1.0000
  C   C1249     1.0  0.9495715084162306  0.37740817618044203  0.1652921623632363  1.0000
  C   C1250     1.0  0.9488886720228843  0.35351964147197923  0.15108507075525215  1.0000
  O   O365      1.0  0.9348151713652001  0.33828213948307057  0.15435106882605312  1.0000
  C   C1251     1.0  0.923034411808888  0.3826617155672592  0.16922769003855145  1.0000
  C   C1252     1.0  0.9130320950455375  0.3911845851000675  0.14972968155586977  1.0000
  C   C1253     1.0  0.935880426847117  0.4036270935406838  0.14375290508630403  1.0000
  N   N352      1.0  0.9639534052383085  0.35042784922705933  0.1358001997839037  1.0000
  C   C1254     1.0  0.9635379139368042  0.3282515717420312  0.12093990856175935  1.0000
  C   C1255     1.0  0.9719103903206879  0.3108019917800313  0.13330171125974097  1.0000
  O   O366      1.0  0.9590093104012829  0.2924062320705335  0.13047662292849813  1.0000
  C   C1256     1.0  0.9803230502156695  0.3298944088148572  0.10346681888297424  1.0000
  C   C1257     1.0  0.9786186395478162  0.3075748706829441  0.08584675929100308  1.0000
  O   O367      1.0  0.9589579209102821  0.3011719963198713  0.07239084723930315  1.0000
  O   O368      1.0  0.9970718147804424  0.2964060446073071  0.08563446941640103  1.0000
  N   N353      1.0  0.9935547811536072  0.31622530374286284  0.147116883099229  1.0000
  C   C1258     1.0  0.003902227603007748  0.2997577984433328  0.15833558647243026  1.0000
  C   C1259     1.0  0.9851321635985023  0.29134151440239453  0.17151388868811213  1.0000
  O   O369      1.0  0.9807708430960204  0.27085599714453656  0.1704034493440398  1.0000
  C   C1260     1.0  0.028835713166077807  0.3102266603961951  0.17299991781032656  1.0000
  C   C1261     1.0  0.0424474903473203  0.2936382335703698  0.1834674416272436  1.0000
  C   C1262     1.0  0.03530015868216514  0.28815187710628737  0.20214895059222507  1.0000
  C   C1263     1.0  0.06235171586738304  0.28356568531879767  0.17469823680714305  1.0000
  C   C1264     1.0  0.04757936016677679  0.2729226874405253  0.21179997489144192  1.0000
  C   C1265     1.0  0.07490979636813831  0.26843494958659475  0.1844145810677759  1.0000
  C   C1266     1.0  0.06746720844283903  0.26308483087129725  0.2029164601388633  1.0000
  N   N354      1.0  0.9733021928703384  0.306714549895074  0.18367973150184566  1.0000
  C   C1267     1.0  0.9554574324960236  0.2992238099128795  0.1966784038236335  1.0000
  C   C1268     1.0  0.931771503746005  0.2860861431115953  0.18225902234104727  1.0000
  O   O370      1.0  0.9214108317821168  0.2693314075696987  0.18689673960158462  1.0000
  C   C1269     1.0  0.9489686959226153  0.31945384744072536  0.21336765396542637  1.0000
  O   O371      1.0  0.9709029108876968  0.32922185555738054  0.22865252493677485  1.0000
  N   N355      1.0  0.9229915174869505  0.2932342499066649  0.1645736427876601  1.0000
  C   C1270     1.0  0.9007908767606112  0.28103857104558194  0.1499746314111798  1.0000
  C   C1271     1.0  0.9042459345453779  0.256502396715599  0.140307277121609  1.0000
  O   O372      1.0  0.8869710453026162  0.2414172528247754  0.13836400826948245  1.0000
  N   N356      1.0  0.9266708260690251  0.25213519967510684  0.13431417066168924  1.0000
  C   C1272     1.0  0.9324202151936886  0.2288249890229344  0.12693301502167909  1.0000
  C   C1273     1.0  0.9315231563644144  0.2160644132433689  0.14492866439179236  1.0000
  O   O373      1.0  0.9200440413602573  0.1969237019329346  0.14109111665860125  1.0000
  C   C1274     1.0  0.9584992104427299  0.22869554581830673  0.11986212919839503  1.0000
  C   C1275     1.0  0.959259309418722  0.23357967844099478  0.09796361213367462  1.0000
  N   N357      1.0  0.9441743665303222  0.2210311555777939  0.07929843315904718  1.0000
  C   C1276     1.0  0.973679135937294  0.24936134159340737  0.0916602358570288  1.0000
  C   C1277     1.0  0.9490575505560845  0.229031622591238  0.06246221310406826  1.0000
  N   N358      1.0  0.9669311227012958  0.24619286835424292  0.0695167689369983  1.0000
  N   N359      1.0  0.9436670104716776  0.22657439439925348  0.16472061270084615  1.0000
  C   C1278     1.0  0.9461919804443006  0.21508447483385298  0.18260195213848138  1.0000
  C   C1279     1.0  0.9209481032844506  0.21070256104607854  0.1901790676627396  1.0000
  O   O374      1.0  0.9134401356935542  0.19157330238657666  0.19174674673672407  1.0000
  C   C1280     1.0  0.9654624991474158  0.22914093873883085  0.20151208096841888  1.0000
  C   C1281     1.0  0.974904556733553  0.21690033409944015  0.21888719070507998  1.0000
  C   C1282     1.0  0.9965140440095859  0.23160606487831686  0.23531516100120878  1.0000
  C   C1283     1.0  0.003883456786332072  0.22146763633110805  0.2547968394935365  1.0000
  N   N360      1.0  0.01811924653987315  0.20132991955215349  0.2490650128792808  1.0000
  N   N361      1.0  0.9074417889432664  0.22812590972558167  0.19498008482681697  1.0000
  C   C1284     1.0  0.8847476441222428  0.2264326276445903  0.20510467884629996  1.0000
  C   C1285     1.0  0.8602687844999208  0.22547042272600637  0.18978714789424347  1.0000
  O   O375      1.0  0.8399415917936927  0.2244364089787212  0.19687436370788153  1.0000
  C   C1286     1.0  0.886031315267031  0.24641834315154904  0.22491295714570772  1.0000
  C   C1287     1.0  0.908922574226669  0.24813173273753392  0.2418634871331647  1.0000
  C   C1288     1.0  0.9100954435063463  0.2336287002951009  0.25582562888583876  1.0000
  C   C1289     1.0  0.929330429723392  0.2642810422259683  0.2439863858791853  1.0000
  C   C1290     1.0  0.9308703559429422  0.2349191547772772  0.2713391197221433  1.0000
  C   C1291     1.0  0.9502821400471139  0.2657850578119061  0.25956519667690586  1.0000
  C   C1292     1.0  0.9508818693324521  0.25106524305488653  0.2731844086321458  1.0000
  O   O376      1.0  0.971617666460216  0.2524665367205115  0.2887468894395124  1.0000
  N   N362      1.0  0.8613712591942133  0.22596006125101967  0.1691297100964274  1.0000
  C   C1293     1.0  0.8386600363217465  0.22600331689142394  0.15435106882605312  1.0000
  C   C1294     1.0  0.8295552645420765  0.24929537552672096  0.1584172364242003  1.0000
  O   O377      1.0  0.8356116715645634  0.26325267654954326  0.1762005959197115  1.0000
  N   N363      1.0  0.8145912182183139  0.25399769285441964  0.1419402761570095  1.0000
  C   C1295     1.0  0.8075327749613355  0.2771119282384309  0.143769235076658  1.0000
  C   C1296     1.0  0.789181958100241  0.283814803510199  0.15982161559464472  1.0000
  O   O378      1.0  0.7867081660325763  0.304085408354967  0.16641893169766264  1.0000
  C   C1297     1.0  0.7956640228349395  0.2766730584381682  0.12036835889936918  1.0000
  C   C1298     1.0  0.7854405420715216  0.2519716078728676  0.11096228445546243  1.0000
  C   C1299     1.0  0.8040627942351981  0.23866635233763023  0.12061330875467925  1.0000
  N   N364      1.0  0.776040480542876  0.267777946162417  0.16622297181341458  1.0000
  C   C1300     1.0  0.7580173822525728  0.2732090375610522  0.18145885281370103  1.0000
  C   C1301     1.0  0.7682912905298134  0.27184418580848907  0.2045494591742638  1.0000
  O   O379      1.0  0.7537175015668447  0.2719405175998411  0.21810335116808774  1.0000
  C   C1302     1.0  0.7334886000881278  0.25743991672102545  0.17358779746307074  1.0000
  C   C1303     1.0  0.7200919075815087  0.25877602022528085  0.15177093035012038  1.0000
  C   C1304     1.0  0.7062942575477145  0.27670186368274763  0.1498603214787018  1.0000
  C   C1305     1.0  0.7205026290604982  0.2416306997515654  0.13333437124044895  1.0000
  C   C1306     1.0  0.6935777748047223  0.277719671494111  0.12987241328539997  1.0000
  C   C1307     1.0  0.7079111253572945  0.24252507377440477  0.11337912302785513  1.0000
  C   C1308     1.0  0.694442281723552  0.26058204957315995  0.11159915407926861  1.0000
  N   N365      1.0  0.792778406394655  0.27022999710217427  0.20923616640586315  1.0000
  C   C1309     1.0  0.8041556762511467  0.26900193028091385  0.23069377373102543  1.0000
  C   C1310     1.0  0.8065985125961612  0.29145574108190114  0.2474646738245883  1.0000
  O   O380      1.0  0.8133579391034149  0.30951297382494913  0.24303924643865302  1.0000
  N   N366      1.0  0.8011752503591542  0.29075099508378704  0.2672566221336421  1.0000
  C   C1311     1.0  0.805902680858196  0.3115329256218334  0.28490934170632126  1.0000
  C   C1312     1.0  0.8332773993815583  0.3216323046311095  0.2891551391983625  1.0000
  O   O381      1.0  0.8388580238926513  0.34218743239600463  0.2967649147033287  1.0000
  C   C1313     1.0  0.7982486895589693  0.3033878466521756  0.304537990111835  1.0000
  C   C1314     1.0  0.8027886859398825  0.278746052723212  0.29960633302492556  1.0000
  C   C1315     1.0  0.7942181134257967  0.27067567555734107  0.27540528732029046  1.0000
  N   N367      1.0  0.8506040744761724  0.3076425059653938  0.284076512198267  1.0000
  C   C1316     1.0  0.8769686861093321  0.3160364555893246  0.2855625413204814  1.0000
  C   C1317     1.0  0.8810704846690394  0.33292853754021673  0.2714207696739133  1.0000
  O   O382      1.0  0.9003684144897952  0.3465612575109931  0.2763197667801148  1.0000
  C   C1318     1.0  0.8919718470548103  0.29573961475847754  0.27945512492808366  1.0000
  C   C1319     1.0  0.8876810020681322  0.2776468392229646  0.29240480727880946  1.0000
  C   C1320     1.0  0.8652571396632618  0.25970269627771875  0.2820679233847244  1.0000
  O   O383      1.0  0.8496390724599476  0.2628015020135743  0.26694635231691605  1.0000
  O   O384      1.0  0.8634451093729462  0.24219212266522833  0.2890898192369465  1.0000
  N   N368      1.0  0.8633573746914294  0.33285141883684366  0.2544375797057484  1.0000
  C   C1321     1.0  0.8671863223457876  0.34767366527595095  0.23964260844502006  1.0000
  C   C1322     1.0  0.8693605516126042  0.3727350779196839  0.25089397179892936  1.0000
  O   O385      1.0  0.8800922346752158  0.3867137760569742  0.24276163660263494  1.0000
  C   C1323     1.0  0.8457329173548432  0.34312666090570504  0.22048752975977245  1.0000
  C   C1324     1.0  0.8460037768730706  0.32140148629634324  0.20340635984948344  1.0000
  S   S24       1.0  0.8770676367226485  0.31644657751013566  0.1973642634185017  1.0000
  C   C1325     1.0  0.8839315402306915  0.3393523049051925  0.18472485088450197  1.0000
  N   N369      1.0  0.8591953059791072  0.37898705967097146  0.2691019110436446  1.0000
  C   C1326     1.0  0.8606249585769725  0.40310598478109244  0.27940613495702166  1.0000
  C   C1327     1.0  0.8872936231008797  0.4129337114183667  0.29016759860031077  1.0000
  O   O386      1.0  0.8930428244533096  0.4335586400467275  0.29395615636243994  1.0000
  C   C1328     1.0  0.842354850378467  0.4076276381751093  0.2962096950312926  1.0000
  O   O387      1.0  0.8485448012725023  0.3955708472043508  0.3126703253081293  1.0000
  C   C1329     1.0  0.8148994892081955  0.4001315121387857  0.2852359415134013  1.0000
  N   N370      1.0  0.9037684054195335  0.39872631201607883  0.29526255559076026  1.0000
  C   C1330     1.0  0.9298507591814095  0.40757586085637254  0.30466863003466704  1.0000
  C   C1331     1.0  0.9437961152852521  0.4170003746628205  0.2885999195263263  1.0000
  O   O388      1.0  0.952860430363178  0.43721365907222653  0.29384184642996186  1.0000
  C   C1332     1.0  0.9435651593212198  0.38944819918430174  0.3131112350476875  1.0000
  C   C1333     1.0  0.9394804197771708  0.38883997533396825  0.33613652144683426  1.0000
  O   O389      1.0  0.9421801743144392  0.37153225241683546  0.34271750755949815  1.0000
  N   N371      1.0  0.9328791930227518  0.4077271054062368  0.34854731411587786  1.0000
  N   N372      1.0  0.9465582542165738  0.4038045167114993  0.2692488809568307  1.0000
  C   C1334     1.0  0.9591522899172754  0.41429901047165113  0.25411097989866827  1.0000
  C   C1335     1.0  0.9449001992906209  0.43250918178923436  0.24686046418149016  1.0000
  O   O390      1.0  0.9568477478121783  0.44867453074392977  0.24269631664121893  1.0000
  C   C1336     1.0  0.9602928520791293  0.39429517624174915  0.23482526129058864  1.0000
  C   C1337     1.0  0.93854728742025  0.3777710404566965  0.2354947908951028  1.0000
  C   C1338     1.0  0.9386456202801507  0.3795275952084538  0.25949987671548985  1.0000
  N   N373      1.0  0.9197465361691866  0.4304676758153858  0.24506416524254962  1.0000
  C   C1339     1.0  0.9057388326586582  0.44782983578438756  0.23817290931315963  1.0000
  C   C1340     1.0  0.9118936905245631  0.4704811825180503  0.2548784894453065  1.0000
  O   O391      1.0  0.9127488206827861  0.4884200059970316  0.24891804296609477  1.0000
  C   C1341     1.0  0.877418347986895  0.44041486808424796  0.2339434418114724  1.0000
  C   C1342     1.0  0.8685707270775682  0.4222671464962907  0.21273078434162015  1.0000
  C   C1343     1.0  0.8406109049246417  0.41676975138806505  0.20920350642515514  1.0000
  C   C1344     1.0  0.8764557017861363  0.4297453061685849  0.19339607576247853  1.0000
  N   N374      1.0  0.916230391016096  0.47008916050585325  0.27586252705020264  1.0000
  C   C1345     1.0  0.9243559680038407  0.4910589633440998  0.29261709715341155  1.0000
  C   C1346     1.0  0.9512577660078181  0.5004056589057427  0.2918495876067733  1.0000
  O   O392      1.0  0.9566584615825239  0.5209655685459772  0.29411945626597996  1.0000
  C   C1347     1.0  0.9221682948332046  0.48703187763691125  0.31518514382264606  1.0000
  C   C1348     1.0  0.8954926924911873  0.48618159667521915  0.3201004709192016  1.0000
  C   C1349     1.0  0.8931538629165373  0.5048595002183442  0.3400720491221494  1.0000
  N   N375      1.0  0.8889499006262482  0.5264802876575001  0.3345688423728498  1.0000
  C   C1350     1.0  0.8827523467159812  0.5443719110414806  0.3484656641641078  1.0000
  N   N376      1.0  0.8800328101782019  0.5432219241129004  0.36864953224165775  1.0000
  N   N377      1.0  0.87915116581577  0.5633804242359408  0.342243937839232  1.0000
  N   N378      1.0  0.968547496377173  0.4856843739588409  0.28925311914048657  1.0000
  C   C1351     1.0  0.9946859303633749  0.49338730944029335  0.28828964970960025  1.0000
  C   C1352     1.0  0.9968156964618315  0.5032348535287642  0.26849770140054646  1.0000
  O   O393      1.0  0.012182774554731483  0.5198056802238142  0.2699347405516989  1.0000
  C   C1353     1.0  0.011082765784241276  0.4739098458866915  0.28819166976747623  1.0000
  C   C1354     1.0  0.01202222253175845  0.46544471549961663  0.30891442752670834  1.0000
  C   C1355     1.0  0.017921949788035883  0.4847992019725804  0.32942489541133824  1.0000
  O   O394      1.0  0.03711786656603303  0.4984987918342224  0.3314171542345269  1.0000
  O   O395      1.0  0.003258933669126587  0.4865260711734906  0.3434523571254284  1.0000
  N   N379      1.0  0.9815511716481871  0.49340362973761476  0.24984885241627303  1.0000
  C   C1356     1.0  0.9808822605571377  0.5039500149934747  0.2313469733451856  1.0000
  C   C1357     1.0  0.9715602366709474  0.5271911480259529  0.23719310989191933  1.0000
  O   O396      1.0  0.9818654146528975  0.5436558365298543  0.2319838429689918  1.0000
  C   C1358     1.0  0.9641206686359434  0.4889070466731947  0.2111141152965737  1.0000
  C   C1359     1.0  0.9767176516925352  0.4682008312365036  0.20190400073691503  1.0000
  C   C1360     1.0  0.9587829950182722  0.502220771594075  0.19369001558885063  1.0000
  C   C1361     1.0  0.9576564813010304  0.45012586048336933  0.18621088000671643  1.0000
  N   N380      1.0  0.9514914733737049  0.5288310778285182  0.24756265376671235  1.0000
  C   C1362     1.0  0.9408431152694564  0.5503942260037374  0.25234734094043576  1.0000
  C   C1363     1.0  0.9591081837511322  0.5684914549944222  0.26879164122691857  1.0000
  O   O397      1.0  0.9602989713913723  0.5883036581223736  0.267060662249394  1.0000
  C   C1364     1.0  0.9153818225793579  0.5474912147712072  0.26025105627177403  1.0000
  C   C1365     1.0  0.9018096253679285  0.568938675299774  0.26265156485381275  1.0000
  O   O398      1.0  0.8890327119002013  0.572424564109991  0.24604396466378992  1.0000
  O   O399      1.0  0.9041555160620267  0.5823879717219396  0.28116977391525416  1.0000
  N   N381      1.0  0.974139381018338  0.5621190607174146  0.2843051320632231  1.0000
  C   C1366     1.0  0.9926580111672996  0.5790239227418001  0.2995246830731555  1.0000
  C   C1367     1.0  0.013355959661636212  0.5872132945361982  0.2878813999507502  1.0000
  O   O400      1.0  0.023063701918710298  0.6070586613701145  0.29376019647819185  1.0000
  C   C1368     1.0  0.004166952973074124  0.5695203631497828  0.3184511418934471  1.0000
  C   C1369     1.0  0.9854629859451214  0.5645102178884779  0.3334910630094855  1.0000
  C   C1370     1.0  0.969554754594413  0.5842266268160023  0.3398434292571933  1.0000
  C   C1371     1.0  0.9415583699241002  0.5779901087581081  0.3296371852859403  1.0000
  N   N382      1.0  0.9279304718770589  0.5985239108844098  0.3310742244370928  1.0000
  N   N383      1.0  0.020812385963585273  0.5720586829056586  0.2716983795099314  1.0000
  C   C1372     1.0  0.03965749293218152  0.5788498251827605  0.25892832705309965  1.0000
  C   C1373     1.0  0.030237798572792678  0.5956841203988122  0.24614194460591393  1.0000
  O   O401      1.0  0.04505635690540319  0.6113216711884218  0.24375776601422924  1.0000
  C   C1374     1.0  0.0465231998311667  0.5581523693699375  0.24313722638077706  1.0000
  O   O402      1.0  0.05433892215650144  0.5417203449785902  0.2548294994742445  1.0000
  C   C1375     1.0  0.06812232658251179  0.5650223813713551  0.23141229330660162  1.0000
  N   N384      1.0  0.005948125544960203  0.5920383272966596  0.23696449002696324  1.0000
  C   C1376     1.0  0.9938509153708391  0.6081549869677146  0.22618669639332012  1.0000
  C   C1377     1.0  0.9939365564753986  0.6306262884260881  0.24263099667980292  1.0000
  O   O403      1.0  5.6317729942391514e-05  0.6489011409044655  0.23828721924563764  1.0000
  C   C1378     1.0  0.9666199670381407  0.5985201095659909  0.215539542682509  1.0000
  C   C1379     1.0  0.953155818662471  0.6161396857543656  0.2065743779781604  1.0000
  C   C1380     1.0  0.9657541138257775  0.5765053066290052  0.19775618318699778  1.0000
  N   N385      1.0  0.9867092263977769  0.6295783144692242  0.2617697453746965  1.0000
  C   C1381     1.0  0.9884891060847514  0.6500283555224815  0.27907953514994155  1.0000
  C   C1382     1.0  0.01494843464473096  0.6623830109645534  0.28512163158092335  1.0000
  O   O404      1.0  0.018227412245829817  0.6832719600000161  0.28990631875464673  1.0000
  N   N386      1.0  0.03416992497808735  0.6497009290844571  0.2850399816291533  1.0000
  C   C1383     1.0  0.06014109486999198  0.6604113248529279  0.2897593488414607  1.0000
  C   C1384     1.0  0.06629015435023533  0.6722497871397605  0.27215561923984355  1.0000
  O   O405      1.0  0.07868654923494263  0.6911483984533113  0.277136266297815  1.0000
  C   C1385     1.0  0.07840852620900268  0.6428953223007836  0.2920618774813754  1.0000
  C   C1386     1.0  0.0781612422733952  0.6350672353037967  0.3128336252116694  1.0000
  C   C1387     1.0  0.09571123274069224  0.617451232448754  0.31427066436282186  1.0000
  O   O406      1.0  0.10686793537103308  0.6098952404209079  0.29888781344934934  1.0000
  N   N387      1.0  0.0986445655352811  0.6107608327170793  0.3328052034146172  1.0000
  N   N388      1.0  0.058142517882048286  0.6612575377758874  0.2514818514516735  1.0000
  C   C1388     1.0  0.061107688442473516  0.6722537221871923  0.23373115193687033  1.0000
  C   C1389     1.0  0.04764460440554266  0.69361063669015  0.23616432049961703  1.0000
  O   O407      1.0  0.05839168297268184  0.7114420848456257  0.23420472165713646  1.0000
  C   C1390     1.0  0.0511884703130005  0.6558395977564381  0.21162034499754784  1.0000
  C   C1391     1.0  0.051291989998628496  0.667029806651368  0.19233462638946822  1.0000
  C   C1392     1.0  0.07847482036490143  0.6755418420072085  0.19032603757592562  1.0000
  C   C1393     1.0  0.038377579311694464  0.6508978213506589  0.17069738917041188  1.0000
  N   N389      1.0  0.023901330798532253  0.6921587123635135  0.2402468180881182  1.0000
  C   C1394     1.0  0.009638923325778379  0.7116284773643509  0.2401814981267022  1.0000
  C   C1395     1.0  0.019251991442194027  0.7310053505470117  0.260120416348942  1.0000
  O   O408      1.0  0.020683875866729606  0.7507771767144694  0.2581608175064614  1.0000
  C   C1396     1.0  0.9813444807103096  0.7050181654905919  0.23885876890802782  1.0000
  C   C1397     1.0  0.9690818702681983  0.6872392797819065  0.2180053712259637  1.0000
  S   S25       1.0  0.9790627632054868  0.6922229607031893  0.1932654358396465  1.0000
  C   C1398     1.0  0.964126517659412  0.7169970765166912  0.1902607176145096  1.0000
  N   N390      1.0  0.02543653113056333  0.7257513828582303  0.27940613495702166  1.0000
  C   C1399     1.0  0.03735445850591192  0.7432147420805452  0.2986591935843933  1.0000
  C   C1400     1.0  0.06239758875918576  0.7537387929193975  0.29482164585120213  1.0000
  O   O409      1.0  0.06861114305933459  0.7742801984202495  0.30158226185776016  1.0000
  C   C1401     1.0  0.04175740797493155  0.7336412198589835  0.31889205163300516  1.0000
  C   C1402     1.0  0.017723927386412198  0.7289580823253314  0.32810216619266386  1.0000
  O   O410      1.0  0.9975973915384512  0.7341691797901477  0.31962690119893544  1.0000
  O   O411      1.0  0.018862006706037396  0.7193992149667701  0.3437626269421544  1.0000
  N   N391      1.0  0.0773810619840982  0.7398770005623595  0.28443577198605513  1.0000
  C   C1403     1.0  0.10084779941016325  0.7491478049613937  0.27912852512100356  1.0000
  C   C1404     1.0  0.09671134856124278  0.765027565221276  0.26402328404354913  1.0000
  O   O412      1.0  0.11023218162938106  0.783231812709377  0.2675995519310762  1.0000
  N   N392      1.0  0.07811398731438303  0.7583654047373336  0.24681147421042815  1.0000
  C   C1405     1.0  0.0726647520233403  0.773109909111093  0.23190219301722179  1.0000
  C   C1406     1.0  0.0640698438739988  0.7951847683960298  0.24377409600458325  1.0000
  O   O413      1.0  0.07195615111282197  0.8133539679814943  0.24032846803988825  1.0000
  C   C1407     1.0  0.052532221745204395  0.7613615314384012  0.21242051452489408  1.0000
  C   C1408     1.0  0.059379427036719175  0.74075545907193  0.19633547402619939  1.0000
  C   C1409     1.0  0.03651380156012878  0.7295198059909521  0.17977686380723853  1.0000
  C   C1410     1.0  0.0810435542826189  0.7473781847859282  0.184806500836272  1.0000
  N   N393      1.0  0.047804212627648786  0.7939026166454075  0.2577362377572573  1.0000
  C   C1411     1.0  0.039627290987512935  0.8145037596656357  0.27022868037807096  1.0000
  C   C1412     1.0  0.061863966402738675  0.8292910009032034  0.2855952013011895  1.0000
  O   O414      1.0  0.06403555225752942  0.8499944281346158  0.2879793798928742  1.0000
  C   C1413     1.0  0.01890358022750115  0.8084489521329239  0.2828517629217167  1.0000
  C   C1414     1.0  0.00934357028638246  0.8288658627741485  0.2963893249251866  1.0000
  C   C1415     1.0  0.9885591916923823  0.8219704522073945  0.30834287786431813  1.0000
  C   C1416     1.0  0.9809303515269789  0.8428963666360973  0.3233991289707105  1.0000
  N   N394      1.0  0.9612823080844313  0.8371448288120131  0.3363161513407283  1.0000
  N   N395      1.0  0.07864640094153387  0.8188568537292278  0.2960137351470445  1.0000
  C   C1417     1.0  0.10181399585855468  0.8312051333375139  0.3091757073723724  1.0000
  C   C1418     1.0  0.11685783464705916  0.8437161532165494  0.2959320851952745  1.0000
  O   O415      1.0  0.12722974285337407  0.863139036950961  0.30408075038192284  1.0000
  C   C1419     1.0  0.11755623510506047  0.8146253709573422  0.318222522028491  1.0000
  C   C1420     1.0  0.14184423781419317  0.8249462379770873  0.3328868533663873  1.0000
  C   C1421     1.0  0.15112176935836133  0.809078991439241  0.34665303523481333  1.0000
  O   O416      1.0  0.1687350411865132  0.7981080867127185  0.3424072377427721  1.0000
  N   N396      1.0  0.138901233504524  0.8075755324429855  0.36296669559846406  1.0000
  N   N397      1.0  0.11821270355316749  0.8329453728643881  0.27542161731064446  1.0000
  C   C1422     1.0  0.13091011073945258  0.8442260326067129  0.26126351567372236  1.0000
  C   C1423     1.0  0.11452427577606995  0.8598368621120077  0.25182478124910757  1.0000
  O   O417      1.0  0.12304877733804223  0.8707900621223761  0.23978957835820608  1.0000
  C   C1424     1.0  0.13879308623253472  0.8268515445685214  0.24250035675697088  1.0000
  C   C1425     1.0  0.16032026738067842  0.8138098574360821  0.2494406026574229  1.0000
  C   C1426     1.0  0.16482012037833801  0.7964634895806413  0.2295996643773071  1.0000
  C   C1427     1.0  0.18412569693955663  0.8299462201969343  0.25945088674442784  1.0000
  N   N398      1.0  0.09126072702598903  0.8606269106644953  0.256723778355309  1.0000
  C   C1428     1.0  0.0724320211712363  0.8725363204725186  0.24648487440334801  1.0000
  C   C1429     1.0  0.06953382713846622  0.864624149054758  0.22166328906526078  1.0000
  O   O418      1.0  0.0664357053871912  0.8778459766407009  0.20982404605860733  1.0000
  C   C1430     1.0  0.07866922702317217  0.8982614787918971  0.2545845496189344  1.0000
  C   C1431     1.0  0.0840481284596295  0.9056299553456324  0.2797327347641017  1.0000
  C   C1432     1.0  0.07447249653989241  0.928201818584597  0.2891714691887165  1.0000
  N   N399      1.0  0.09261960334799488  0.9476731299547737  0.28990631875464673  1.0000
  C   C1433     1.0  0.0916144246124461  0.9687134901941895  0.3013209820120961  1.0000
  N   N400      1.0  0.07337310731393393  0.9735961667377421  0.3132255449801656  1.0000
  N   N401      1.0  0.10883822780467481  0.9847688706801112  0.3006841123882899  1.0000
  N   N402      1.0  0.07025669606620603  0.8424827101171807  0.21389021365675454  1.0000
  C   C1434     1.0  0.0649366910331423  0.8311857731474873  0.19079960729619175  1.0000
  C   C1435     1.0  0.03972584441132465  0.8164262523810559  0.184741180874856  1.0000
  O   O419      1.0  0.033732884963578076  0.8044451481057309  0.16604334191952053  1.0000
  C   C1436     1.0  0.08637264118228614  0.8169537127188096  0.18434926110635988  1.0000
  C   C1437     1.0  0.11082863377310054  0.8312169194810521  0.18364707152113768  1.0000
  C   C1438     1.0  0.1324121157760324  0.8167962302144707  0.1796135639036985  1.0000
  C   C1439     1.0  0.1061416429077836  0.8444445757182628  0.16614132186164454  1.0000
  N   N403      1.0  0.024717751652989024  0.8171708375643105  0.19997706187514244  1.0000
  C   C1440     1.0  0.001587056941283782  0.8019378272125162  0.19671106380434147  1.0000
  C   C1441     1.0  0.9801283860942465  0.8075862719950233  0.18132821289086898  1.0000
  O   O420      1.0  0.9607614305797214  0.7941715095869085  0.17512281655634718  1.0000
  C   C1442     1.0  0.9930435319107168  0.8021797082626212  0.21872389080153992  1.0000
  C   C1443     1.0  0.9888662679564816  0.825227349698817  0.23106936350916754  1.0000
  N   N404      1.0  0.007465394451199735  0.8432610870719575  0.2365399102777591  1.0000
  C   C1444     1.0  0.9682238909506107  0.8332180958990861  0.23907105878262988  1.0000
  C   C1445     1.0  0.9984255918595594  0.8613765299637998  0.24730137392104828  1.0000
  N   N405      1.0  0.974706858889391  0.8557346846654389  0.2490813428696348  1.0000
  N   N406      1.0  0.9829415643862245  0.826894833687286  0.17512281655634718  1.0000
  C   C1446     1.0  0.9647060316064618  0.833145678372441  0.1590541060480065  1.0000
  C   C1447     1.0  0.9768596625912629  0.8356265729231482  0.13919683777753666  1.0000
  O   O421      1.0  0.9673199533032489  0.8460483824363414  0.1262144954461029  1.0000
  C   C1448     1.0  0.9540429025436581  0.8549122910134  0.16961960980704757  1.0000
  C   C1449     1.0  0.9423757427589655  0.8531237952084318  0.1902117276434476  1.0000
  C   C1450     1.0  0.9308667182410488  0.8747509488897809  0.20067925146036464  1.0000
  N   N407      1.0  0.9091930462659535  0.8787478065671868  0.18625986997777844  1.0000
  C   C1451     1.0  0.8861842297222506  0.8678577366446911  0.1837287214729077  1.0000
  N   N408      1.0  0.8816394296808331  0.8523563617195842  0.19493109485575497  1.0000
  N   N409      1.0  0.8677968474878694  0.8723174067929884  0.16984822967200364  1.0000
  N   N410      1.0  0.9978614086769315  0.8260966584644979  0.13684531916656  1.0000
  C   C1452     1.0  0.012828014444662496  0.8274424588951608  0.11969882929485498  1.0000
  C   C1453     1.0  0.014052785993346998  0.8044572100078914  0.10456092823669255  1.0000
  O   O422      1.0  0.014528663495362752  0.8029452532200712  0.08504658976365685  1.0000
  C   C1454     1.0  0.0399083509841531  0.8380810411313478  0.13015002312141805  1.0000
  S   S26       1.0  0.06275320625263928  0.8351556194867813  0.11169713402139264  1.0000
  N   N411      1.0  0.013735363559389414  0.7865266655581246  0.11306885321112906  1.0000
  C   C1455     1.0  0.019618365311186863  0.7643512587877715  0.10178482987651175  1.0000
  C   C1456     1.0  0.9952686588072766  0.7489333214035517  0.09208481560623291  1.0000
  O   O423      1.0  0.9773447145631907  0.7486283958521958  0.10256866941350397  1.0000
  C   C1457     1.0  0.03635835566911186  0.7542645123810849  0.11796785031733048  1.0000
  C   C1458     1.0  0.04110917547371739  0.7306476490433814  0.10750032650041343  1.0000
  C   C1459     1.0  0.06123880887438094  0.769326127608069  0.12596954559079282  1.0000
  N   N412      1.0  0.9944732649922958  0.7358749573321297  0.07216222737434708  1.0000
  C   C1460     1.0  0.9738998188415005  0.7178320226259927  0.06314807269893645  1.0000
  C   C1461     1.0  0.9812590962823915  0.6962947916082778  0.0695167689369983  1.0000
  O   O424      1.0  0.0026527462001344156  0.690358888229461  0.0681287197569079  1.0000
  C   C1462     1.0  0.967474083473678  0.7140592319935768  0.038440797293327236  1.0000
  C   C1463     1.0  0.9554288106234169  0.733730187143461  0.03203944107455736  1.0000
  O   O425      1.0  0.9365653135825065  0.7403005264719227  0.039420596714567525  1.0000
  N   N413      1.0  0.9667945758619172  0.7436928241069591  0.018665178974627456  1.0000
  N   N414      1.0  0.9637959551645173  0.6852561176858649  0.07743681425869063  1.0000
  C   C1464     1.0  0.9681607597094374  0.6650584111468235  0.08529153961896692  1.0000
  C   C1465     1.0  0.9492388399828824  0.6456454146952478  0.0714926977698329  1.0000
  O   O426      1.0  0.9267222949439419  0.6484504239985226  0.06723057028743765  1.0000
  C   C1466     1.0  0.9658903011519009  0.6686923708851867  0.10970487519820406  1.0000
  C   C1467     1.0  0.9699819336314359  0.6468350884500546  0.11716768078998424  1.0000
  C   C1468     1.0  0.984561838212006  0.6884506888473694  0.12350371704733809  1.0000
  N   N415      1.0  0.9584285533727673  0.6261952481988287  0.06416053210088475  1.0000
  C   C1469     1.0  0.9424029565188065  0.605638540770662  0.05191303933538117  1.0000
  C   C1470     1.0  0.945337336854336  0.5880252309426838  0.0653362914063731  1.0000
  O   O427      1.0  0.9666303794799354  0.5837193034957324  0.07229286729717913  1.0000
  C   C1471     1.0  0.9491549169177449  0.5972150150692732  0.028871422945880437  1.0000
  C   C1472     1.0  0.9418691695395455  0.6138025711804236  0.014827631241436334  1.0000
  C   C1473     1.0  0.9360840880650584  0.5735750560732763  0.017913999418343235  1.0000
  C   C1474     1.0  0.9413096770829699  0.6049104186520503  0.9904959456139693  1.0000
  N   N416      1.0  0.9240791597016795  0.579306029315625  0.07041491840646859  1.0000
  C   C1475     1.0  0.922647588191604  0.5604564641118039  0.08091510220409365  1.0000
  C   C1476     1.0  0.9094844264995564  0.539768091455006  0.06357265244814057  1.0000
  O   O428      1.0  0.8869018011581145  0.5388006383616042  0.056305806740608456  1.0000
  C   C1477     1.0  0.908620855641055  0.5664403192353147  0.10069072052279343  1.0000
  C   C1478     1.0  0.9082511172821552  0.5487571752499386  0.11409764260343135  1.0000
  C   C1479     1.0  0.9280268570360405  0.5487424109135493  0.13024800306354206  1.0000
  C   C1480     1.0  0.8877643158716988  0.5321159339210406  0.11026009487024022  1.0000
  C   C1481     1.0  0.9276492765614912  0.5322597987467154  0.14233219592550558  1.0000
  C   C1482     1.0  0.8872711912449818  0.5158838292524511  0.12242593768397378  1.0000
  C   C1483     1.0  0.9074279367226574  0.5159726242571174  0.13833134828877444  1.0000
  N   N417      1.0  0.9233518309218174  0.5230905793862893  0.05694267636441464  1.0000
  C   C1484     1.0  0.9141136753075061  0.5047636023546785  0.03778759767916704  1.0000
  C   C1485     1.0  0.9225741885350728  0.4825842701284863  0.041837435286960226  1.0000
  O   O429      1.0  0.9434538129531284  0.4821187550389377  0.052402939046001316  1.0000
  C   C1486     1.0  0.9236100194442205  0.5101569481200305  0.01734244975595307  1.0000
  C   C1487     1.0  0.9525787348798304  0.512687583433889  0.020445147923213974  1.0000
  C   C1488     1.0  0.9127069360718294  0.4926322098307859  0.9967176719388451  1.0000
  N   N418      1.0  0.9064638829608873  0.46399784991350956  0.03308456045721367  1.0000
  C   C1489     1.0  0.9124378618502759  0.4416334145936386  0.034603249560136114  1.0000
  C   C1490     1.0  0.9170557884862376  0.42758679038238945  0.01262308254364569  1.0000
  O   O430      1.0  0.911373082388714  0.4334296783588934  0.9955745726140647  1.0000
  N   N419      1.0  0.9276274043741158  0.4086456133782735  0.013227292186743867  1.0000
  C   C1491     1.0  0.9314472435822975  0.3935868292420932  0.9927984742538839  1.0000
  C   C1492     1.0  0.9107137362643578  0.3739721430480599  0.9842088993276774  1.0000
  O   O431      1.0  0.9052530381117888  0.36609766026731083  0.9643026410861456  1.0000
  C   C1493     1.0  0.9573318438886947  0.3844768713255443  0.9953786127298166  1.0000
  C   C1494     1.0  0.9618880742021534  0.37388998063704426  0.014974601154622376  1.0000
  O   O432      1.0  0.9458154546632016  0.3741165264659025  0.027663003659684084  1.0000
  O   O433      1.0  0.9819717315419466  0.36517852515185706  0.017636389582325156  1.0000
  N   N420      1.0  0.8985738549198469  0.3663537821736271  0.9985466308584936  1.0000
  C   C1495     1.0  0.8790128751105  0.3471838706105814  0.9922759145625557  1.0000
  C   C1496     1.0  0.8683479259080459  0.3451491352941226  0.012737392476123722  1.0000
  O   O434      1.0  0.8790326535463907  0.3557916333945562  0.030945331720839044  1.0000
  C   C1497     1.0  0.8894669725492028  0.3250529803153293  0.9824942503405069  1.0000
  C   C1498     1.0  0.9121163825907387  0.32068728675865166  0.996554372035305  1.0000
  N   N421      1.0  0.9106503261208628  0.3139497298175011  0.015693120730198587  1.0000
  C   C1499     1.0  0.9369422050480182  0.3229624043449835  0.9947254131156564  1.0000
  C   C1500     1.0  0.9336069612398225  0.3119059399353669  0.024870575309149268  1.0000
  N   N422      1.0  0.9499022446342298  0.3173309839203839  0.012492442620813652  1.0000
  N   N423      1.0  0.8479219883447787  0.3305363057405871  0.00965102429921682  1.0000
  C   C1501     1.0  0.8355751504660622  0.3263188497661447  0.027483373765790034  1.0000
  C   C1502     1.0  0.8448759894972406  0.30665784848696076  0.03590964878845649  1.0000
  O   O435      1.0  0.8669171901742365  0.3022387123616533  0.03586065881739448  1.0000
  N   N424      1.0  0.827621183452029  0.29443325001989873  0.04316016450563461  1.0000
  C   C1503     1.0  0.8341691136007185  0.27638495766555454  0.05377465823573772  1.0000
  C   C1504     1.0  0.8101725476090855  0.26143060828868725  0.05335007848653359  1.0000
  O   O436      1.0  0.7908436365080379  0.2699827969546606  0.058053115708486966  1.0000
  C   C1505     1.0  0.8472178108615396  0.2857684615579414  0.07743681425869063  1.0000
  C   C1506     1.0  0.8558539564540849  0.26755518320650457  0.08950467713030015  1.0000
  S   S27       1.0  0.8826137395617696  0.2534939707201196  0.07977200287931331  1.0000
  C   C1507     1.0  0.9078118182336676  0.27605818299542684  0.08646729892445527  1.0000
  N   N425      1.0  0.8115869938647104  0.2391787012889256  0.04797751166006602  1.0000
  C   C1508     1.0  0.7896899010964584  0.222518922526713  0.04479316354103509  1.0000
  C   C1509     1.0  0.7942521856842345  0.20683159279200955  0.06014335447379957  1.0000
  O   O437      1.0  0.8156807590882376  0.20207431982027393  0.06554858128097515  1.0000
  C   C1510     1.0  0.7843588395382773  0.2084992908392465  0.02080440771100208  1.0000
  C   C1511     1.0  0.7622550920588536  0.19001792874555767  0.01518689102922444  1.0000
  C   C1512     1.0  0.7378372019539863  0.19919757805218302  0.020363497971443954  1.0000
  O   O438      1.0  0.7326864311853991  0.2009046869825964  0.039273626801381474  1.0000
  O   O439      1.0  0.7240325470702285  0.20504916376827287  0.005731826614255675  1.0000
  N   N426      1.0  0.773912989617831  0.19874763124140649  0.06711626035495961  1.0000
  C   C1513     1.0  0.7742035042447402  0.18004907282634203  0.07795937395001878  1.0000
  C   C1514     1.0  0.7813181941541418  0.15837682219344199  0.06360531242884859  1.0000
  O   O440      1.0  0.7661644691953304  0.14766548912243194  0.04763458186263192  1.0000
  C   C1515     1.0  0.7479872749120114  0.17503108154136895  0.08390349043887652  1.0000
  C   C1516     1.0  0.7458938435538021  0.18608843077640755  0.10735335658722737  1.0000
  O   O441      1.0  0.7242813255794625  0.18672839084392054  0.11290555330758899  1.0000
  O   O442      1.0  0.7658416095971659  0.19384564624723274  0.12023771897653715  1.0000
  N   N427      1.0  0.8037327506214269  0.15137121480397153  0.06889622930354614  1.0000
  C   C1517     1.0  0.8106503579674825  0.12960368385923032  0.05733459613291076  1.0000
  C   C1518     1.0  0.8230465767606103  0.11752618102026076  0.07384421638080958  1.0000
  O   O443      1.0  0.8374059878461848  0.12825228313124257  0.0903375066383544  1.0000
  C   C1519     1.0  0.8283399331719791  0.13208327468971615  0.04044938610686982  1.0000
  C   C1520     1.0  0.818679405379175  0.14757461486108348  0.02596468466286759  1.0000
  C   C1521     1.0  0.8549067407751197  0.1403960706810454  0.05186404936431916  1.0000
  N   N428      1.0  0.8177599158582542  0.09511949883839955  0.06930447906239626  1.0000
  C   C1522     1.0  0.8279561768049517  0.0816665719022021  0.08398514039064654  1.0000
  C   C1523     1.0  0.836003323132387  0.05978406225940498  0.07110077800133678  1.0000
  O   O444      1.0  0.8254656775412743  0.05079595376452624  0.0523376190845853  1.0000
  C   C1524     1.0  0.8086795659945287  0.07567678335761657  0.09812691203721469  1.0000
  O   O445      1.0  0.7841720045298908  0.06987254050384883  0.08516089969613488  1.0000
  C   C1525     1.0  0.807598175885529  0.09563191400870326  0.11721667076104626  1.0000
  N   N429      1.0  0.8545426018782237  0.051116690243772314  0.0818132516735639  1.0000
  C   C1526     1.0  0.8636108045873512  0.02955643974722105  0.07227653730682512  1.0000
  C   C1527     1.0  0.84216759583509  0.010852319216774101  0.06305009275681243  1.0000
  O   O446      1.0  0.8445634411020231  0.9949135875668117  0.047814211756525976  1.0000
  C   C1528     1.0  0.8814121283458463  0.022015145283471982  0.08950467713030015  1.0000
  S   S28       1.0  0.9108801940370679  0.03929985812893305  0.10036412071571334  1.0000
  N   N430      1.0  0.8215456458606936  0.012025796627251542  0.07273377703673725  1.0000
  C   C1529     1.0  0.799865313430618  0.9949606210077235  0.06520565148354106  1.0000
  C   C1530     1.0  0.7891460007614736  0.9932034381904091  0.0413965255474021  1.0000
  O   O447      1.0  0.780171843944335  0.9746687001159549  0.029344992666146576  1.0000
  C   C1531     1.0  0.7799057723730289  0.0009270806520624359  0.08014759265745543  1.0000
  C   C1532     1.0  0.7576670829134343  0.9830102061736493  0.07541189545479404  1.0000
  O   O448      1.0  0.7423595042954264  0.9806932890260487  0.05821641561202701  1.0000
  O   O449      1.0  0.7554201425187335  0.9714143101831788  0.08916174733286605  1.0000
  N   N431      1.0  0.7901716664059337  0.012071155411105653  0.03421132979164  1.0000
  C   C1533     1.0  0.7776136716684814  0.012674982802539102  0.01255776258222967  1.0000
  C   C1534     1.0  0.7968982259608617  0.012273125984623663  0.9968483118616771  1.0000
  O   O450      1.0  0.8031198492602228  0.028956400116743795  0.9901366858261811  1.0000
  C   C1535     1.0  0.7633071984844664  0.0335252773081009  0.014011131723736095  1.0000
  C   C1536     1.0  0.7415796807824058  0.03375994040009507  0.026732194209505813  1.0000
  C   C1537     1.0  0.7259427976346464  0.052763300597951535  0.02340087617728884  1.0000
  N   N432      1.0  0.738908663658884  0.07492506598730073  0.035093149270756255  1.0000
  C   C1538     1.0  0.7373073613732277  0.08482816989859802  0.055685267107156274  1.0000
  N   N433      1.0  0.7235695925636115  0.07441523418624427  0.06718158031637564  1.0000
  N   N434      1.0  0.7496527958395025  0.10511902031209855  0.06494437163787697  1.0000
  N   N435      1.0  0.8058986266756323  0.992515921386234  0.9903979656718452  1.0000
  C   C1539     1.0  0.8243624423062906  0.990093222873574  0.9754233645172228  1.0000
  C   C1540     1.0  0.81581020634268  0.9695950254240192  0.9564642457162232  1.0000
  O   O451      1.0  0.8076373442930551  0.9514877520880023  0.9598282237291482  1.0000
  C   C1541     1.0  0.8503675577771844  0.9880367907972575  0.9872626075238763  1.0000
  O   O452      1.0  0.8568919683718357  0.0069125681003901285  0.0057808165853176895  1.0000
  C   C1542     1.0  0.8700524244250477  0.9879655673330165  0.9722880063692539  1.0000
  N   N436      1.0  0.8171976647857508  0.9727584457328046  0.9365743174650455  1.0000
  C   C1543     1.0  0.8141568398238859  0.954156400058356  0.9173049288473198  1.0000
  C   C1544     1.0  0.8400296525297829  0.947346634761318  0.9127978515096145  1.0000
  O   O453      1.0  0.8582495100813035  0.9618253201179257  0.9154106499662553  1.0000
  C   C1545     1.0  0.8002860027079493  0.9609695246299581  0.8976762804418061  1.0000
  C   C1546     1.0  0.7730513122610299  0.9642904321466647  0.8991949695447286  1.0000
  C   C1547     1.0  0.7550570418391234  0.9438265736511499  0.8861962972229407  1.0000
  O   O454      1.0  0.7638519038960347  0.9260245636938212  0.8776883722485043  1.0000
  O   O455      1.0  0.7320716388911699  0.9457980028184827  0.8842040383997521  1.0000
  N   N437      1.0  0.8416890682247146  0.9252678310217848  0.9060045755223485  1.0000
  C   C1548     1.0  0.8656501508375816  0.9163056729783424  0.9022323477505734  1.0000
  C   C1549     1.0  0.8650104639653889  0.9046909066152353  0.8782599219108944  1.0000
  O   O456      1.0  0.8479554251601706  0.8897084180568603  0.8686578875827397  1.0000
  C   C1550     1.0  0.8720275497482985  0.9000166998786946  0.9167497091752836  1.0000
  C   C1551     1.0  0.875474306368882  0.9113399537175064  0.9406078250824846  1.0000
  C   C1552     1.0  0.8967711260185586  0.926145827566603  0.9501608694395774  1.0000
  C   C1553     1.0  0.8569803214559816  0.9080607315850973  0.9530186177515283  1.0000
  C   C1554     1.0  0.8997928597971389  0.9370115028141662  0.9718470966296958  1.0000
  C   C1555     1.0  0.8598147678615014  0.918794646425815  0.9747701649030627  1.0000
  C   C1556     1.0  0.88116844351373  0.9333459541450992  0.9842252293180314  1.0000
  N   N438      1.0  0.8837374372206879  0.9115868976584394  0.8686905475634477  1.0000
  C   C1557     1.0  0.8855683928140687  0.9001932624797118  0.8462694708073991  1.0000
  C   C1558     1.0  0.8872966040928861  0.874918436203121  0.8438852922157144  1.0000
  O   O457      1.0  0.8780530879365367  0.861189465324032  0.8266898123729474  1.0000
  C   C1559     1.0  0.9083396477358184  0.9110536468513604  0.8388229952059729  1.0000
  C   C1560     1.0  0.907072618688512  0.9349779955917559  0.8354426872026939  1.0000
  C   C1561     1.0  0.9305686120660719  0.9417649031760361  0.8265591724501153  1.0000
  C   C1562     1.0  0.8836647494530003  0.9363100261692684  0.8200271763085134  1.0000
  N   N439      1.0  0.8989140067002461  0.8684504713760473  0.8609991221067114  1.0000
  C   C1563     1.0  0.9018139628929599  0.8446964709845338  0.859970332714409  1.0000
  C   C1564     1.0  0.8764998972516578  0.830529591310061  0.8575534941420164  1.0000
  O   O458      1.0  0.8755459007253534  0.8095957879721654  0.852654497035815  1.0000
  C   C1565     1.0  0.9194246032148352  0.8426783889047181  0.880366490666561  1.0000
  O   O459      1.0  0.906882504856945  0.846903086539611  0.8987540598051704  1.0000
  N   N440      1.0  0.8560393264906554  0.8412845511427397  0.8611950819909594  1.0000
  C   C1566     1.0  0.8305239507446975  0.8295604966691056  0.8546467558590035  1.0000
  C   C1567     1.0  0.8210624008499228  0.8266370543994247  0.8304457101543685  1.0000
  O   O460      1.0  0.8004498118657206  0.8156086674714619  0.822329704948428  1.0000
  C   C1568     1.0  0.8119132520352746  0.8423897074712264  0.8678250580746854  1.0000
  C   C1569     1.0  0.8159112749851055  0.8414421858215646  0.8915362040687003  1.0000
  O   O461      1.0  0.8208500767484259  0.8238392295759008  0.8965985010784417  1.0000
  N   N441      1.0  0.8143600521612465  0.8603386416989762  0.9061678754258886  1.0000
  N   N442      1.0  0.8352632988687934  0.8361628579338176  0.8186881170994851  1.0000
  C   C1570     1.0  0.8250384738476618  0.836213745539122  0.7963976802662684  1.0000
  C   C1571     1.0  0.8416336052464436  0.8251782215360876  0.7802473198061578  1.0000
  O   O462      1.0  0.8320288023152904  0.8114029308682653  0.7633947697608249  1.0000
  C   C1572     1.0  0.8225351375993573  0.8610360177489214  0.7950422910668861  1.0000
  C   C1573     1.0  0.8017047700377269  0.8713786910019132  0.8067508941507076  1.0000
  C   C1574     1.0  0.8064011869415175  0.8830462671645106  0.8283554713890559  1.0000
  C   C1575     1.0  0.7773107172532057  0.8697987223690846  0.7956301707196303  1.0000
  C   C1576     1.0  0.787605875034316  0.8926275449351084  0.839051615070929  1.0000
  C   C1577     1.0  0.7582822353595644  0.8793682429553501  0.8061466845076093  1.0000
  C   C1578     1.0  0.763558046754425  0.8908096634091107  0.8277675917363116  1.0000
  O   O463      1.0  0.7447520551426141  0.9002642861803596  0.8382187855628747  1.0000
  N   N443      1.0  0.8666052335783392  0.8309334848679899  0.7854075967580233  1.0000
  C   C1579     1.0  0.8849630759027562  0.8215343935136458  0.7717393948317213  1.0000
  C   C1580     1.0  0.8960841011111943  0.8021460770872173  0.7797410901051837  1.0000
  O   O464      1.0  0.899409324709649  0.8024285920421088  0.7993370785299894  1.0000
  C   C1581     1.0  0.9061288851264269  0.8395540850905858  0.7713311450728711  1.0000
  C   C1582     1.0  0.8962726878906818  0.8609754524003949  0.7664811379377318  1.0000
  C   C1583     1.0  0.9175675165592491  0.8786806166777859  0.7667260877930419  1.0000
  C   C1584     1.0  0.8790713204081937  0.8547680823024224  0.7446152808537194  1.0000
  N   N444      1.0  0.9018591427748035  0.7853364477855658  0.7643092492206491  1.0000
  C   C1585     1.0  0.9125120169027704  0.7656434437533167  0.7698941059217188  1.0000
  C   C1586     1.0  0.9400841598185667  0.7712737126321809  0.7807045595360699  1.0000
  O   O465      1.0  0.9479966749873006  0.7635275215103241  0.7964466702373305  1.0000
  C   C1587     1.0  0.9100231324110171  0.7460912119924918  0.7495142779599208  1.0000
  O   O466      1.0  0.8849405420935581  0.7345610059412295  0.7453338004292955  1.0000
  C   C1588     1.0  0.9288728449474237  0.7291802833713027  0.7528619259824918  1.0000
  N   N445      1.0  0.954913172374638  0.7849064611933071  0.7727681842240236  1.0000
  C   C1589     1.0  0.9808783479991666  0.7929024745671513  0.7829744281952766  1.0000
  C   C1590     1.0  0.98468655400281  0.8186874322901883  0.787808105340062  1.0000
  O   O467      1.0  0.9853560867560908  0.8283798157801201  0.7728171741950856  1.0000
  C   C1591     1.0  0.9998675910224546  0.7825515222849451  0.7687183466162304  1.0000
  C   C1592     1.0  0.026706628221342822  0.788540416228088  0.7805085996518218  1.0000
  O   O468      1.0  0.031017043547491192  0.7929362853374308  0.8006434777583098  1.0000
  N   N446      1.0  0.04486629870394711  0.7889539256449569  0.7682121169152563  1.0000
  N   N447      1.0  0.9877604596296568  0.8296745762465646  0.8087921429449582  1.0000
  C   C1593     1.0  0.992858429847026  0.8542806323230525  0.8158956887489502  1.0000
  C   C1594     1.0  0.020853457688829406  0.8623654835870879  0.8227542846976322  1.0000
  O   O469      1.0  0.027748624344953555  0.8829262639419975  0.8286004212443658  1.0000
  C   C1595     1.0  0.9782187729463415  0.8636510087230211  0.8346751776560557  1.0000
  C   C1596     1.0  0.9501545682175673  0.8581668029914957  0.8270327421703815  1.0000
  C   C1597     1.0  0.9863228740129677  0.853939911738521  0.8542221761097994  1.0000
  N   N448      1.0  0.03721549091911713  0.8469793253055725  0.8223786949194901  1.0000
  C   C1598     1.0  0.06411975880054746  0.8541360393655961  0.8289433510418001  1.0000
  C   C1599     1.0  0.07667282183572037  0.8602541244570843  0.8106864218260227  1.0000
  O   O470      1.0  0.09903467269445607  0.8682909477969686  0.8145729595302758  1.0000
  C   C1600     1.0  0.07751317444316706  0.8356592069065362  0.8373043061030505  1.0000
  C   C1601     1.0  0.06759004686427746  0.8304482093235165  0.8572922142963523  1.0000
  O   O471      1.0  0.06682727374546502  0.8105277601573843  0.859447773023081  1.0000
  O   O472      1.0  0.06076097727830202  0.8462397025780652  0.8710094061937164  1.0000
  N   N449      1.0  0.06300867569642196  0.8566994864473406  0.791025113439801  1.0000
  C   C1602     1.0  0.07321708138917953  0.8624357223441103  0.7726212143108375  1.0000
  C   C1603     1.0  0.06427509433261598  0.8841902352698224  0.7677222172046361  1.0000
  O   O473      1.0  0.06770979757549103  0.8890966594239931  0.7504124274293911  1.0000
  C   C1604     1.0  0.06640730299155949  0.8426483801905698  0.7524863362043497  1.0000
  C   C1605     1.0  0.08192644607678913  0.8228536677200045  0.753890715374794  1.0000
  O   O474      1.0  0.07448401252768  0.8039340685951923  0.7413492827829185  1.0000
  O   O475      1.0  0.10159142646947164  0.8261642549483288  0.7676079072721581  1.0000
  N   N450      1.0  0.05279560688886339  0.8973063527821526  0.7824518685039484  1.0000
  C   C1606     1.0  0.04523095334810541  0.9190904846708476  0.7798554000376616  1.0000
  C   C1607     1.0  0.054632727311956945  0.9369635563263385  0.8008231076522038  1.0000
  O   O476      1.0  0.05904342859505323  0.9321007303434866  0.818639127128423  1.0000
  C   C1608     1.0  0.016351229339186285  0.9190108727040031  0.7739112835488039  1.0000
  C   C1609     1.0  0.0026976394555108985  0.9128120336915276  0.7917109730346691  1.0000
  C   C1610     1.0  0.006380945332916496  0.9033659707805537  0.7516535066962954  1.0000
  C   C1611     1.0  0.9746139558623703  0.9095059903930071  0.7855545666712094  1.0000
  N   N451      1.0  0.057943432541529095  0.9579457872999995  0.798308289137687  1.0000
  C   C1612     1.0  0.06354857122357513  0.9777186982409003  0.8165325583727564  1.0000
  C   C1613     1.0  0.03978276721199027  0.9896728528779675  0.8179859275142628  1.0000
  O   O477      1.0  0.02701702676347788  0.9920328591963116  0.8012150274206999  1.0000
  C   C1614     1.0  0.08562077821303768  0.9935268400285099  0.8135115101572655  1.0000
  O   O478      1.0  0.10791128890411471  0.9819473356268074  0.8131685803598314  1.0000
  C   C1615     1.0  0.09042192872008137  0.01503790635159235  0.8319807292476449  1.0000
  N   N452      1.0  0.03362649619980958  0.9965196977452172  0.8378595257750866  1.0000
  C   C1616     1.0  0.011383116438785352  0.008144089743284892  0.8421543132381899  1.0000
  C   C1617     1.0  0.019903639562604703  0.03071874118752821  0.8584189836307786  1.0000
  O   O479      1.0  0.0315837750410073  0.031162183507944523  0.876545272923724  1.0000
  C   C1618     1.0  0.9926070013406402  0.9938743786751101  0.8512991078364325  1.0000
  C   C1619     1.0  0.9702223830628218  0.005769813978379819  0.8595294229748509  1.0000
  C   C1620     1.0  0.9524017700662635  0.01004890596404491  0.8404233342606654  1.0000
  C   C1621     1.0  0.9558675785244901  0.9925198662096865  0.8724464453448687  1.0000
  N   N453      1.0  0.01433613946069507  0.049312726779540635  0.8519849674313007  1.0000
  C   C1622     1.0  0.01361117338164354  0.07065898316678404  0.8680046879685794  1.0000
  C   C1623     1.0  0.9889099687957517  0.06824551998463524  0.8770841626054061  1.0000
  O   O480      1.0  0.96868783572591  0.066829281217785  0.8649019898013185  1.0000
  C   C1624     1.0  0.015443006622626336  0.09126251956868718  0.8579454139105125  1.0000
  C   C1625     1.0  0.013764406165103748  0.11286810966590725  0.8751408937532795  1.0000
  C   C1626     1.0  0.04003925564275312  0.09303124080798363  0.8486536493990837  1.0000
  N   N454      1.0  0.989426221022439  0.06719210279294266  0.8979212302971161  1.0000
  C   C1627     1.0  0.9661321968507639  0.060404276904880205  0.9058086156381004  1.0000
  C   C1628     1.0  0.9545692955549313  0.07958300038448324  0.9195911274968804  1.0000
  O   O481      1.0  0.9637575987951698  0.09948971299139739  0.9230040954808675  1.0000
  C   C1629     1.0  0.9750170310495843  0.04414622648843661  0.9196564474582966  1.0000
  C   C1630     1.0  0.0017966025791085823  0.05485527094757871  0.9299280113909655  1.0000
  C   C1631     1.0  0.012113984661374675  0.06689498997132252  0.9136633409983768  1.0000
  N   N455      1.0  0.9344763715149268  0.07342627505826929  0.928099052471317  1.0000
  C   C1632     1.0  0.9239617622571219  0.08950601203718098  0.9442330829410737  1.0000
  C   C1633     1.0  0.8983726585688536  0.09524477919493647  0.9353005782174331  1.0000
  O   O482      1.0  0.8817360410196609  0.08001324862461702  0.9251596542075962  1.0000
  N   N456      1.0  0.8952282934719618  0.11734643594364508  0.9388115261435441  1.0000
  C   C1634     1.0  0.8720883701227392  0.126045601357157  0.9310057907543299  1.0000
  C   C1635     1.0  0.8692592560441066  0.1254779021226488  0.9067557550786327  1.0000
  O   O483      1.0  0.85038088604922  0.13234255177227713  0.8979865502585322  1.0000
  C   C1636     1.0  0.8711528919124  0.15032808027200276  0.9441514329893037  1.0000
  O   O484      1.0  0.8931046036377379  0.1643520371269226  0.9424204540117792  1.0000
  C   C1637     1.0  0.871003440251664  0.15041589508860478  0.9680585388675667  1.0000
  N   N457      1.0  0.8874682506361208  0.11738937764348481  0.8959126414835736  1.0000
  C   C1638     1.0  0.885374543089803  0.11169762981589425  0.8722178254799127  1.0000
  C   C1639     1.0  0.9009316118811348  0.09199724605945571  0.8659960991550368  1.0000
  O   O485      1.0  0.9160905541911449  0.0867115325619023  0.8797949410041709  1.0000
  C   C1640     1.0  0.894338200972898  0.13206249678692467  0.8635139406212281  1.0000
  C   C1641     1.0  0.9215258316360856  0.14338323365992559  0.8714829759139824  1.0000
  C   C1642     1.0  0.932299127216607  0.15183187257643588  0.8533403566306832  1.0000
  C   C1643     1.0  0.9225180829694271  0.16318015856290194  0.8911932742712662  1.0000
  N   N458      1.0  0.8970836545496415  0.08107504020816632  0.8452733413958048  1.0000
  C   C1644     1.0  0.9123396806399688  0.06322733852766171  0.8369123863345543  1.0000
  C   C1645     1.0  0.9234296230602703  0.0679019210890491  0.8175450177747047  1.0000
  O   O486      1.0  0.910782796575808  0.07502165075707538  0.8035828760220306  1.0000
  N   N459      1.0  0.9474119333433124  0.06404355177478163  0.8169734681123145  1.0000
  C   C1646     1.0  0.9588514188341771  0.06407326121239634  0.7974427996489248  1.0000
  C   C1647     1.0  0.9740897344573621  0.043862650831297485  0.7939318517228138  1.0000
  O   O487      1.0  0.9889836636022017  0.0409359824627812  0.8092167226941622  1.0000
  C   C1648     1.0  0.975653290439511  0.08628504819595717  0.7999412881730875  1.0000
  C   C1649     1.0  0.962136689810173  0.10737441654758814  0.8063263144015034  1.0000
  C   C1650     1.0  0.9733586060283331  0.12708692390604107  0.7985042490219351  1.0000
  N   N460      1.0  0.0007154731394527895  0.1309930642001667  0.8046933153661029  1.0000
  C   C1651     1.0  0.012345187899240986  0.14460274080533908  0.8231951944371904  1.0000
  N   N461      1.0  0.9990529087360058  0.15605543314519627  0.8374512760162365  1.0000
  N   N462      1.0  0.03731216031095316  0.14713471313335116  0.8271633820932135  1.0000
  N   N463      1.0  0.9700133925428663  0.029705977268235432  0.77422155336553  1.0000
  C   C1652     1.0  0.980779200000448  0.008122117224805167  0.7694858561628686  1.0000
  C   C1653     1.0  0.9971295153888137  0.008072699993811138  0.7515555267541714  1.0000
  O   O488      1.0  0.9895361648788371  0.015199338382966093  0.7354378262747687  1.0000
  C   C1654     1.0  0.9600380812111102  0.9879514317998964  0.7624966202913546  1.0000
  C   C1655     1.0  0.9458866958758577  0.985350243788451  0.7814067491212922  1.0000
  C   C1656     1.0  0.9709636302611141  0.9658592436236522  0.75346613562559  1.0000
  C   C1657     1.0  0.923960041436281  0.9666753235106154  0.7746134731340262  1.0000
  N   N464      1.0  0.01951990316007655  0.00029749897577146714  0.7545439149889542  1.0000
  C   C1658     1.0  0.03495795479368461  0.9939479815947069  0.7372667851944172  1.0000
  C   C1659     1.0  0.04665116107703493  0.9724436050459748  0.7397979336992879  1.0000
  O   O489      1.0  0.04501045216202725  0.9648317674762314  0.7559482941593987  1.0000
  C   C1660     1.0  0.055369536117638  0.013037234414979443  0.7379199848085773  1.0000
  C   C1661     1.0  0.07226211705725662  0.02052442476618137  0.7593775921337397  1.0000
  C   C1662     1.0  0.0902520487240149  0.04114253985162774  0.7601614316707319  1.0000
  N   N465      1.0  0.11008276738618253  0.04536171336865272  0.7789899105488994  1.0000
  C   C1663     1.0  0.10867911613216062  0.05880017091026806  0.7983246191280411  1.0000
  N   N466      1.0  0.08828571727596966  0.06942546388795841  0.80137832732424  1.0000
  N   N467      1.0  0.12775160781986739  0.06171199876293794  0.8146056195109839  1.0000
  N   N468      1.0  0.05857896069754152  0.9624767239824905  0.7237128932005932  1.0000
  C   C1664     1.0  0.07083314307854006  0.9421318742262497  0.7248886525060816  1.0000
  C   C1665     1.0  0.09667482449683554  0.9480760756330381  0.7390794141237118  1.0000
  O   O490      1.0  0.11041900436133811  0.9652390105327038  0.7391937240561898  1.0000
  C   C1666     1.0  0.0737785941668099  0.9287209563909349  0.702091985971891  1.0000
  N   N469      1.0  0.10339848054070765  0.9334853472545569  0.7509023271400113  1.0000
  C   C1667     1.0  0.1281334558556067  0.9369481974027521  0.7645705290663132  1.0000
  C   C1668     1.0  0.14820119505447704  0.9275401513645293  0.7511309470049673  1.0000
  O   O491      1.0  0.1609660075699318  0.9397687275801199  0.7426393520208847  1.0000
  C   C1669     1.0  0.12732034610570403  0.9259264859539648  0.7838725776647468  1.0000
  C   C1670     1.0  0.14925311000254454  0.9347469344234437  0.8023581267454802  1.0000
  C   C1671     1.0  0.15153257684478086  0.9195467689490394  0.8183451873020509  1.0000
  C   C1672     1.0  0.12762949359814144  0.9178699307495055  0.8284697813215338  1.0000
  N   N470      1.0  0.12715477366616196  0.8995451851490629  0.8406846141063294  1.0000
  N   N471      1.0  0.9659561670532452  0.8583646536024477  0.6293418789447996  1.0000
  C   C1673     1.0  0.9504312893399336  0.866405916286757  0.6126036388319448  1.0000
  C   C1674     1.0  0.9340560451773806  0.8837314248030832  0.623561062359482  1.0000
  O   O492      1.0  0.9199594900573608  0.8786803221048345  0.6359881850188795  1.0000
  C   C1675     1.0  0.9340828217174575  0.8464994416253784  0.596289978468294  1.0000
  C   C1676     1.0  0.922449768907427  0.8527484972920762  0.575648870660832  1.0000
  O   O493      1.0  0.910327807294581  0.8696975332606484  0.5770859098119845  1.0000
  O   O494      1.0  0.9254373426751129  0.8404605642699664  0.5577675312231968  1.0000
  N   N472      1.0  0.9360911435901303  0.9041488779232433  0.6189723350700067  1.0000
  C   C1677     1.0  0.9238017788522578  0.9229306929299311  0.6308932280284301  1.0000
  C   C1678     1.0  0.8952661779874447  0.918348293238124  0.6291949090316136  1.0000
  O   O495      1.0  0.8856088918050549  0.9202058284808439  0.6460637890673006  1.0000
  C   C1679     1.0  0.9310093484351671  0.9423431993796887  0.6204746941825752  1.0000
  C   C1680     1.0  0.9559197697208324  0.9372710089883822  0.6138283881084952  1.0000
  C   C1681     1.0  0.9533228313284213  0.91192531607364  0.6053367931244127  1.0000
  N   N473      1.0  0.8814124638825178  0.9124716373768653  0.6093213107707898  1.0000
  C   C1682     1.0  0.8541133285574323  0.9077865157647454  0.6076066617836193  1.0000
  C   C1683     1.0  0.8465708747539389  0.8850613951226707  0.6126362988126528  1.0000
  O   O496      1.0  0.8258606344649714  0.8817704301011041  0.6184497753786785  1.0000
  C   C1684     1.0  0.8409188381567388  0.9089606927166547  0.5850059551336767  1.0000
  C   C1685     1.0  0.8353548220949691  0.9330939967467259  0.5831280062429662  1.0000
  C   C1686     1.0  0.8101788400981611  0.9394070483279611  0.5912603414392605  1.0000
  C   C1687     1.0  0.8021515471240173  0.9614419446591932  0.586100064487395  1.0000
  N   N474      1.0  0.7862787520093815  0.9723873413469901  0.6021524450053817  1.0000
  N   N475      1.0  0.8629177922312662  0.8695431861960848  0.6111339397000843  1.0000
  C   C1688     1.0  0.8584764816767394  0.8500520193771971  0.620442034201867  1.0000
  C   C1689     1.0  0.8588083772590094  0.8575003315481375  0.6450513296653523  1.0000
  O   O497      1.0  0.8425869709774882  0.8490566505682201  0.6539511744082849  1.0000
  C   C1690     1.0  0.8783147821896091  0.8336652632950721  0.6154450571535417  1.0000
  O   O498      1.0  0.8756704470083734  0.8244648165336141  0.5923871107736869  1.0000
  C   C1691     1.0  0.8756319280392515  0.8145445596078348  0.627169990227717  1.0000
  N   N476      1.0  0.8772404327854182  0.8732664738264572  0.6564170029517395  1.0000
  C   C1692     1.0  0.877812586138185  0.8821944450903454  0.6798342091193824  1.0000
  C   C1693     1.0  0.854527560794212  0.8944402740177865  0.6839167067078835  1.0000
  O   O499      1.0  0.8422344767343122  0.8914546103724226  0.6983687481711778  1.0000
  C   C1694     1.0  0.9027240925476484  0.897472295449398  0.6896322033317852  1.0000
  C   C1695     1.0  0.9250796558650657  0.8832947862495607  0.6879665443156768  1.0000
  C   C1696     1.0  0.9031929452421457  0.9091814571144962  0.7136536191425262  1.0000
  C   C1697     1.0  0.9506356043459925  0.897292026523748  0.695853929656661  1.0000
  N   N477      1.0  0.8475121761265401  0.9077608933646205  0.6707547344825557  1.0000
  C   C1698     1.0  0.8251351217099634  0.919780904410557  0.6734655128813206  1.0000
  C   C1699     1.0  0.8017248376929399  0.9029737587807842  0.6700852048780416  1.0000
  O   O500      1.0  0.7859747953840978  0.9056585602099423  0.6828062673638113  1.0000
  C   C1700     1.0  0.8222100866510577  0.9355720028415018  0.6578050521318299  1.0000
  C   C1701     1.0  0.8432292627973177  0.9551075290729941  0.6641574183795378  1.0000
  C   C1702     1.0  0.7961476402952204  0.9445507808276552  0.6576744122089979  1.0000
  C   C1703     1.0  0.8389075328205582  0.9734716618542736  0.6832635070937234  1.0000
  N   N478      1.0  0.7990517275081808  0.8853313534700016  0.6528244050738585  1.0000
  C   C1704     1.0  0.7769887552910312  0.86862153411482  0.6485786075818173  1.0000
  C   C1705     1.0  0.7751279479887538  0.8581625545567834  0.668027626093437  1.0000
  O   O501      1.0  0.7545338970302372  0.85507171861316  0.6742493524183129  1.0000
  C   C1706     1.0  0.777847756435406  0.8503448546204709  0.6278395198322313  1.0000
  N   N479      1.0  0.7965803985138469  0.853184345460679  0.6782338700646899  1.0000
  C   C1707     1.0  0.7964982440710157  0.8424453203244544  0.6965561192418833  1.0000
  C   C1708     1.0  0.7908716448218849  0.8584448362697217  0.7171972270493454  1.0000
  O   O502      1.0  0.7843964299577177  0.8506065527529166  0.7321718282039678  1.0000
  C   C1709     1.0  0.8219867278685045  0.8331191605697691  0.7011775065120667  1.0000
  N   N480      1.0  0.7929328828451355  0.8805623564234377  0.7183239963837718  1.0000
  C   C1710     1.0  0.7873072738710589  0.8970693773759509  0.7371034852908771  1.0000
  C   C1711     1.0  0.7610992862643832  0.9049461726553355  0.73320061759627  1.0000
  O   O503      1.0  0.7538340858209757  0.9188022648332522  0.7479302688955823  1.0000
  C   C1712     1.0  0.8075681969183872  0.917645136126018  0.743406861567523  1.0000
  C   C1713     1.0  0.8350662654843015  0.9145900713288025  0.7512942469085073  1.0000
  C   C1714     1.0  0.8521084685947595  0.9363653627105902  0.754021355297626  1.0000
  C   C1715     1.0  0.8377723774374614  0.9073104467760053  0.7728171741950856  1.0000
  N   N481      1.0  0.746493786176454  0.8960780673829699  0.7141925088242085  1.0000
  C   C1716     1.0  0.7233938713812289  0.9055170789899218  0.7077095026536686  1.0000
  C   C1717     1.0  0.7004589576163085  0.89266535770954  0.7130983994704901  1.0000
  O   O504      1.0  0.6945254339214542  0.8724518306510161  0.7040842447950795  1.0000
  C   C1718     1.0  0.7203042793643493  0.9049374132158956  0.6833451570454935  1.0000
  O   O505      1.0  0.7398230086454423  0.9201853353749831  0.6793932993798243  1.0000
  C   C1719     1.0  0.6945289609263874  0.9121677584170099  0.6759150114344212  1.0000
  N   N482      1.0  0.6876891012061237  0.9045447535465488  0.7276157608952004  1.0000
  C   C1720     1.0  0.6635452996301131  0.8962593259038488  0.733314927528748  1.0000
  C   C1721     1.0  0.6635447310458177  0.8720524193230369  0.736352305734593  1.0000
  O   O506      1.0  0.6483954058609898  0.8563977442937232  0.7248396625350195  1.0000
  C   C1722     1.0  0.6409840043761  0.8974488047830728  0.7162010976377511  1.0000
  S   S29       1.0  0.6384159036548066  0.924131343444599  0.7077748226150846  1.0000
  N   N483      1.0  0.6803415846198764  0.8692992253360134  0.7526659660982438  1.0000
  C   C1723     1.0  0.6830914257555687  0.8470246603870871  0.756928093580639  1.0000
  C   C1724     1.0  0.670636995061697  0.8431483388195373  0.7760668422755326  1.0000
  O   O507      1.0  0.6642099388362054  0.8235729209257872  0.7770303117064188  1.0000
  C   C1725     1.0  0.7110878562098212  0.8435008069968086  0.7610105911691402  1.0000
  C   C1726     1.0  0.7230522563145013  0.8403601969961019  0.7404348033230941  1.0000
  C   C1727     1.0  0.7071374176459013  0.8223185803053611  0.7220309041941309  1.0000
  C   C1728     1.0  0.7211360936004712  0.8163535528533901  0.7027941755571132  1.0000
  N   N484      1.0  0.7079036147066269  0.8224141081543306  0.6832471771033695  1.0000
  N   N485      1.0  0.667155941975107  0.8611596275986989  0.7911067633915709  1.0000
  C   C1729     1.0  0.6559870253679176  0.8603739183244117  0.8105067919321286  1.0000
  C   C1730     1.0  0.634433749729328  0.875240314820938  0.8114376013823069  1.0000
  O   O508      1.0  0.6362625239632571  0.8930076289981372  0.8051178951153071  1.0000
  C   C1731     1.0  0.6758059785567445  0.86856643985376  0.8312295496913606  1.0000
  C   C1732     1.0  0.6654012005797653  0.8701837925902002  0.8524911971322748  1.0000
  C   C1733     1.0  0.6861466957507695  0.8742362243856074  0.8720381955860186  1.0000
  C   C1734     1.0  0.7026622454453422  0.8963489293700521  0.8746673240330134  1.0000
  N   N486      1.0  0.7022226644167306  0.9127243516817983  0.8960269514160516  1.0000
  N   N487      1.0  0.6135094920051984  0.8680844904743465  0.818704447089839  1.0000
  C   C1735     1.0  0.5914060538512461  0.8810074971032513  0.8192923267425831  1.0000
  C   C1736     1.0  0.5973575482325476  0.9063998000449517  0.828633081225074  1.0000
  O   O509      1.0  0.5910468842240326  0.9197389092359933  0.8173980478615186  1.0000
  C   C1737     1.0  0.5757529238463667  0.8703181890278384  0.8336463882637534  1.0000
  C   C1738     1.0  0.5810796754704317  0.8460592910695218  0.8285351012829498  1.0000
  C   C1739     1.0  0.6080897484818935  0.8458490463547996  0.8235871142056864  1.0000
  N   N488      1.0  0.609460831714473  0.913384847740697  0.8489965791965178  1.0000
  C   C1740     1.0  0.6154256646916678  0.9375710138629478  0.8588435633799827  1.0000
  C   C1741     1.0  0.6435720553047444  0.9446656874965523  0.8603949124636132  1.0000
  O   O510      1.0  0.6563488226051161  0.953965311435341  0.8781619419687704  1.0000
  C   C1742     1.0  0.6067404564126992  0.9435751145551912  0.8812809701263853  1.0000
  C   C1743     1.0  0.5797876432044541  0.949930907888245  0.8799255809270029  1.0000
  O   O511      1.0  0.5745542030009563  0.9659253423127833  0.8713686659815044  1.0000
  O   O512      1.0  0.5637334893110215  0.9388654983863423  0.8872087566248891  1.0000
  N   N489      1.0  0.6531869091296292  0.9404253834009448  0.8417460634793398  1.0000
  C   C1744     1.0  0.6798776386965033  0.9457108589529626  0.8408479140098695  1.0000
  C   C1745     1.0  0.6874084764102817  0.9712326669835727  0.8482617296305877  1.0000
  O   O513      1.0  0.6753668252609368  0.9842541894303186  0.8399171045596912  1.0000
  C   C1746     1.0  0.6847714997840246  0.9367130535316766  0.8174143778518727  1.0000
  C   C1747     1.0  0.7120256712339434  0.9351539442379627  0.815177169173374  1.0000
  C   C1748     1.0  0.7158849686599928  0.922855895579074  0.7927560924173254  1.0000
  O   O514      1.0  0.7056342319883988  0.9033396633185999  0.784231837452535  1.0000
  N   N490      1.0  0.7308062137891655  0.9342177612466899  0.7827621383206745  1.0000
  N   N491      1.0  0.7073606408275253  0.9786026709078901  0.8639548503607862  1.0000
  C   C1749     1.0  0.7133449417505091  0.0027378305442828078  0.8743243942355793  1.0000
  C   C1750     1.0  0.734581242427816  0.014054922792504905  0.8654735394637088  1.0000
  O   O515      1.0  0.7470824147439823  0.03139540970398853  0.876888202721158  1.0000
  C   C1751     1.0  0.7195501347190324  0.006485850676919713  0.8990643296218965  1.0000
  C   C1752     1.0  0.6976027076145316  0.9995388531478576  0.9091562636606715  1.0000
  N   N492      1.0  0.6773970460450629  0.012081637834422508  0.9116547521848342  1.0000
  C   C1753     1.0  0.692104580773151  0.9808351560313644  0.9164720993392655  1.0000
  C   C1754     1.0  0.6604997785078486  0.0015420947118268903  0.9203259770628107  1.0000
  N   N493      1.0  0.6690937140267186  0.9826335485263331  0.9235756451432576  1.0000
  N   N494      1.0  0.7388574131188672  0.0045322025896260346  0.8454856312704069  1.0000
  C   C1755     1.0  0.7548917621372113  0.015822188137093973  0.8335484083216294  1.0000
  C   C1756     1.0  0.7446233163707385  0.007073553199898591  0.8093310326266403  1.0000
  O   O516      1.0  0.731138181781765  0.9889656327995673  0.8026357365814983  1.0000
  C   C1757     1.0  0.7825699855792357  0.011489234872427647  0.8386760252927868  1.0000
  C   C1758     1.0  0.787509036626643  0.9874314794740507  0.8298088405305623  1.0000
  C   C1759     1.0  0.7850261545651164  0.9712899208310702  0.8419420233635878  1.0000
  C   C1760     1.0  0.795150110330159  0.9809438068535977  0.8094616725494723  1.0000
  C   C1761     1.0  0.7895293720464458  0.9488296057241508  0.8336137282830454  1.0000
  C   C1762     1.0  0.7998148305284003  0.9585738284171015  0.8011660374496379  1.0000
  C   C1763     1.0  0.796900430926363  0.9425266650761122  0.8133482102537255  1.0000
  N   N495      1.0  0.7508280664485426  0.02006550427276886  0.7961037404398964  1.0000
  C   C1764     1.0  0.7438628185777574  0.012248018395224516  0.7725232343687135  1.0000
  C   C1765     1.0  0.767060759436578  0.015275976491685763  0.7615494808508223  1.0000
  O   O517      1.0  0.7802691770473491  0.03382135838667945  0.7664321479666697  1.0000
  C   C1766     1.0  0.7227155763245636  0.0247492794635706  0.763607059635427  1.0000
  C   C1767     1.0  0.7132366741657302  0.014577934747524971  0.7394876638825618  1.0000
  C   C1768     1.0  0.690890844807862  0.026017623363528114  0.7308654289756473  1.0000
  C   C1769     1.0  0.6692834353504187  0.024898782768512713  0.7438967612781431  1.0000
  N   N496      1.0  0.6576813665795251  0.0008650746261435394  0.7403531533713241  1.0000
  N   N497      1.0  0.7724462508757305  0.9978152437085711  0.746607539676908  1.0000
  C   C1770     1.0  0.7941389243863722  0.00015402427011836997  0.7351765464291047  1.0000
  C   C1771     1.0  0.7874209719107301  0.0106738833016742  0.7159724777727949  1.0000
  O   O518      1.0  0.7659543741297292  0.007554004167935881  0.705602933898002  1.0000
  C   C1772     1.0  0.799607219013216  0.9755801470079489  0.7270115512521023  1.0000
  C   C1773     1.0  0.7733174436076291  0.9625930064007678  0.7220635641748387  1.0000
  C   C1774     1.0  0.7585898478369906  0.974965461737208  0.7392263840368978  1.0000
  N   N498      1.0  0.8064679566545883  0.022694037114931998  0.7109428407437615  1.0000
  C   C1775     1.0  0.8037922656673939  0.033896502787605254  0.6929635213640023  1.0000
  C   C1776     1.0  0.8281995767333336  0.03323278570230957  0.6832798370840775  1.0000
  O   O519      1.0  0.8486310090264211  0.03631818311468649  0.695429349907457  1.0000
  C   C1777     1.0  0.7996195110008215  0.0589865019135673  0.7004263269557824  1.0000
  C   C1778     1.0  0.7740888816068148  0.0640080236463477  0.7062071435411001  1.0000
  C   C1779     1.0  0.7677245670389001  0.06264790618001675  0.726537981531836  1.0000
  C   C1780     1.0  0.7566958142781314  0.07113712670862415  0.6918857420006379  1.0000
  C   C1781     1.0  0.7443889010955793  0.06770399051719783  0.7317962384258256  1.0000
  C   C1782     1.0  0.733478227699585  0.07606207870451685  0.6970133589717955  1.0000
  C   C1783     1.0  0.7274035297396831  0.07433718399048211  0.7170012671650974  1.0000
  O   O520      1.0  0.7041363976827355  0.07950046758991536  0.7221615441169629  1.0000
  N   N499      1.0  0.8261638129797764  0.029470867244375983  0.6615936098939591  1.0000
  C   C1784     1.0  0.8463368931194527  0.03906344549142027  0.6520895555079284  1.0000
  C   C1785     1.0  0.8457138732330568  0.06470111722993625  0.657984682025724  1.0000
  O   O521      1.0  0.8254146425629201  0.07284447847258341  0.6581316519389101  1.0000
  C   C1786     1.0  0.8430291637431997  0.029773627952428213  0.6274149400830271  1.0000
  C   C1787     1.0  0.8455887537604536  0.004379521697095715  0.619919474510539  1.0000
  S   S30       1.0  0.8776312937509544  0.9971987650846467  0.6247041616842623  1.0000
  C   C1788     1.0  0.8905247789634776  0.006903129409271671  0.60340985426264  1.0000
  N   N500      1.0  0.8679241560030567  0.07736883448525729  0.6638308185724577  1.0000
  C   C1789     1.0  0.8688891561350611  0.10163462686952764  0.6732042330356565  1.0000
  C   C1790     1.0  0.85426893432195  0.1132408621471377  0.657511112305458  1.0000
  O   O522      1.0  0.841589804718945  0.1286759190674791  0.664435028215556  1.0000
  C   C1791     1.0  0.8962544932145378  0.11223622941729966  0.6798015491386744  1.0000
  C   C1792     1.0  0.9128428414513546  0.10850932556807041  0.661299670067587  1.0000
  C   C1793     1.0  0.9398019710764943  0.11966269265389652  0.6701831848201656  1.0000
  C   C1794     1.0  0.9549987393429249  0.12213086412738205  0.6517302957201402  1.0000
  N   N501      1.0  0.980140330122038  0.13491175676712686  0.6607444503955509  1.0000
  N   N502      1.0  0.8546807791849899  0.10511600034029069  0.6362004748934817  1.0000
  C   C1795     1.0  0.8407848191480825  0.11431645198975911  0.6194948947613348  1.0000
  C   C1796     1.0  0.8126113888528189  0.1126123120294603  0.620180754356203  1.0000
  O   O523      1.0  0.7994713308920726  0.12457113436489538  0.6111992596615003  1.0000
  C   C1797     1.0  0.8453953434221091  0.10193296271275795  0.5967962081692681  1.0000
  C   C1798     1.0  0.8731633880784655  0.10179656319789446  0.5944610195486455  1.0000
  C   C1799     1.0  0.8853983633744533  0.08321274083176797  0.602854634590604  1.0000
  O   O524      1.0  0.8724975667063003  0.0687029900246347  0.6086517811662756  1.0000
  N   N503      1.0  0.9104733214254045  0.08354743281701045  0.6036058141468881  1.0000
  N   N504      1.0  0.8030336528427019  0.09821924805580086  0.6306156181924121  1.0000
  C   C1800     1.0  0.7761138342271788  0.09439468480823053  0.6310401979416161  1.0000
  C   C1801     1.0  0.768524158351866  0.10589334481431376  0.6527590851124425  1.0000
  O   O525      1.0  0.7461216578138543  0.1032616481264533  0.6555351834726233  1.0000
  C   C1802     1.0  0.7677954166356598  0.06882964972756604  0.6255696511730247  1.0000
  C   C1803     1.0  0.771154635159353  0.0566678388174622  0.6029689445230819  1.0000
  N   N505      1.0  0.7773327280551467  0.0347476119473037  0.5980046274554645  1.0000
  C   C1804     1.0  0.7693788356894424  0.0634705432188856  0.5840261557124364  1.0000
  C   C1805     1.0  0.7791744428722404  0.02851701771889153  0.5769715998795064  1.0000
  N   N506      1.0  0.7743816686749941  0.04563880012160269  0.5681207451076358  1.0000
  N   N507      1.0  0.786589959997989  0.1180574729266354  0.668223585977685  1.0000
  C   C1806     1.0  0.7805785070263696  0.1315382725084552  0.688456444026297  1.0000
  C   C1807     1.0  0.7642130772863089  0.14977785343383543  0.6835737769104495  1.0000
  O   O526      1.0  0.7650059414345667  0.15675432245497664  0.6668518667879486  1.0000
  C   C1808     1.0  0.8046431854467677  0.1427320022596  0.7039862648529556  1.0000
  C   C1809     1.0  0.8204658830231404  0.12794863400075415  0.7156295479753609  1.0000
  C   C1810     1.0  0.8462716332764422  0.14121501605931233  0.7258031319659058  1.0000
  C   C1811     1.0  0.8066474443911983  0.12024227265687315  0.733053647683084  1.0000
  N   N508      1.0  0.7485544703423495  0.15713706606670969  0.6975032586824156  1.0000
  C   C1812     1.0  0.7346191174784209  0.17650248189485568  0.695364029946041  1.0000
  C   C1813     1.0  0.7521636499063279  0.19608376173380598  0.6925716015955061  1.0000
  O   O527      1.0  0.7728196686496657  0.20201541612462628  0.7042638746889736  1.0000
  C   C1814     1.0  0.7238919553772196  0.18233289885042045  0.7168379672615572  1.0000
  C   C1815     1.0  0.7194996776104342  0.1598251885884894  0.7220145742037767  1.0000
  C   C1816     1.0  0.7412029562164208  0.14689022971524154  0.7148946984094307  1.0000
  N   N509      1.0  0.7437023833892134  0.2060377009577182  0.6767805009231835  1.0000
  C   C1817     1.0  0.7593016653544963  0.2238642197669508  0.671228304202822  1.0000
  C   C1818     1.0  0.764919349158214  0.2448527218045906  0.6898444932063874  1.0000
  O   O528      1.0  0.7844156186679352  0.2578702046185259  0.6917387720874519  1.0000
  C   C1819     1.0  0.7461269690564721  0.2297882470808814  0.65066884634713  1.0000
  C   C1820     1.0  0.73898354526547  0.2096159154048367  0.6313667977486963  1.0000
  C   C1821     1.0  0.7624180230555003  0.19925662220913387  0.623561062359482  1.0000
  C   C1822     1.0  0.7763185184275986  0.2141922533878507  0.6118687892660146  1.0000
  N   N510      1.0  0.7959281011420632  0.2021674081738855  0.6004051360375032  1.0000
  N   N511      1.0  0.7480926745836424  0.24861093375346335  0.7037086550169374  1.0000
  C   C1823     1.0  0.7521048362627011  0.26830463714271613  0.7222758540494408  1.0000
  C   C1824     1.0  0.7754257292816824  0.26778396175752717  0.7385078644613216  1.0000
  O   O529      1.0  0.7850027585680529  0.2855098093127793  0.7515391967638174  1.0000
  C   C1825     1.0  0.7288014045516713  0.26955832129166307  0.7338701472007843  1.0000
  C   C1826     1.0  0.7235100337487183  0.24826657324773527  0.7418881724646006  1.0000
  C   C1827     1.0  0.7009147237572492  0.2490948909136843  0.7540866752590422  1.0000
  N   N512      1.0  0.6954540190012599  0.22756766135577677  0.7599001518250679  1.0000
  C   C1828     1.0  0.7063997048943998  0.22242892930934424  0.7778631412144731  1.0000
  N   N513      1.0  0.7233490718939439  0.23743755867558422  0.7921355527838733  1.0000
  N   N514      1.0  0.7000116929942181  0.20230123298895428  0.7818313288704962  1.0000
  N   N515      1.0  0.7845791422588552  0.2478744799440916  0.7385241944516756  1.0000
  C   C1829     1.0  0.807684932978731  0.2469859345725202  0.7528129360114297  1.0000
  C   C1830     1.0  0.831092694482299  0.2551488134365462  0.7443050110369933  1.0000
  O   O530      1.0  0.8507263590684867  0.2621494010051418  0.7572546933877191  1.0000
  C   C1831     1.0  0.8098854788759635  0.22284032617559876  0.7559646241497526  1.0000
  C   C1832     1.0  0.7877384037399309  0.21299360050911365  0.7652400586708274  1.0000
  C   C1833     1.0  0.7899629354552988  0.18867962313819595  0.7670526876001219  1.0000
  C   C1834     1.0  0.7848112785267727  0.22855306181445056  0.7872202256873179  1.0000
  N   N516      1.0  0.8295294665915146  0.25422616235288803  0.7230596935864331  1.0000
  C   C1835     1.0  0.8510531553769998  0.2614189806830694  0.7132290393933223  1.0000
  C   C1836     1.0  0.8747151123891862  0.25047909852154776  0.7198263554963401  1.0000
  O   O531      1.0  0.8956255594642405  0.2615882869596051  0.7258194619562599  1.0000
  C   C1837     1.0  0.8562456278805133  0.2872900879728151  0.719401775747136  1.0000
  C   C1838     1.0  0.8352262911965889  0.2988585251400244  0.7103712910813713  1.0000
  N   N517      1.0  0.829931284519982  0.2983943376574648  0.688456444026297  1.0000
  C   C1839     1.0  0.8178964702640316  0.31089693085195413  0.7201692852937742  1.0000
  C   C1840     1.0  0.8102838187830919  0.3097224638462479  0.685141455984434  1.0000
  N   N518      1.0  0.80272873760321  0.31761205349430083  0.7041822247372036  1.0000
  N   N519      1.0  0.8715217604268984  0.22843484309124037  0.7189282060268698  1.0000
  C   C1841     1.0  0.8912974063706246  0.21702791376600572  0.7288731701524587  1.0000
  C   C1842     1.0  0.8980330435918198  0.19719763480063593  0.7118736501939398  1.0000
  O   O532      1.0  0.893660129021987  0.1773202842124117  0.7134086692872162  1.0000
  C   C1843     1.0  0.8829184705205437  0.20888241608597657  0.7486324584808045  1.0000
  C   C1844     1.0  0.9049782801096916  0.20324033284208026  0.7633131198090548  1.0000
  C   C1845     1.0  0.9227353350651017  0.22023536977081046  0.7760505122851785  1.0000
  C   C1846     1.0  0.9080264372321596  0.18099694752065099  0.7642602592495871  1.0000
  C   C1847     1.0  0.9433499969135609  0.21551385365030779  0.7895390843175865  1.0000
  C   C1848     1.0  0.9288140865654139  0.1760294012438433  0.777552871397747  1.0000
  C   C1849     1.0  0.946254819496973  0.19342762730106022  0.7901922839317467  1.0000
  O   O533      1.0  0.966407317045391  0.18899804241522422  0.8036645259738007  1.0000
  N   N520      1.0  0.9091513686969269  0.20224401750782725  0.695788609695245  1.0000
  C   C1850     1.0  0.9169042772633242  0.183379112379177  0.6802914488492946  1.0000
  C   C1851     1.0  0.9390702837177509  0.18992949167354894  0.6695299852060055  1.0000
  O   O534      1.0  0.9540922399061609  0.1760347163753816  0.664304388292724  1.0000
  C   C1852     1.0  0.8945720190243792  0.1719490636933095  0.6628183591705095  1.0000
  N   N521      1.0  0.9416524575218636  0.21070900042399848  0.6661333472123725  1.0000
  C   C1853     1.0  0.9601520112495312  0.21662259327257533  0.6526774351606726  1.0000
  C   C1854     1.0  0.9863332786215356  0.22453403674298222  0.6661823371834344  1.0000
  O   O535      1.0  0.9963835912881115  0.24416589006224435  0.6694156752735274  1.0000
  C   C1855     1.0  0.9510025674719931  0.23438230407522437  0.6410341520382671  1.0000
  C   C1856     1.0  0.9677840205949436  0.23868892147201506  0.6248837915781564  1.0000
  O   O536      1.0  0.9784629272529919  0.22311186003590291  0.6148081875297354  1.0000
  N   N522      1.0  0.9704071403867945  0.25976211718165637  0.6222056731600996  1.0000
  N   N523      1.0  0.9979874388771061  0.20841671571243783  0.6733185429681345  1.0000
  C   C1857     1.0  0.023898475958152282  0.21285729165331005  0.6846352262834599  1.0000
  C   C1858     1.0  0.03482786409080266  0.19042691904153053  0.6836390968718655  1.0000
  O   O537      1.0  0.022150788861836853  0.1743134139934362  0.6870194048751446  1.0000
  C   C1859     1.0  0.02521774337016221  0.22600560697871602  0.7085586621520767  1.0000
  C   C1860     1.0  0.052251850809448934  0.23529026681752213  0.719450765718198  1.0000
  O   O538      1.0  0.06764038301876202  0.222654200192759  0.7242517828822754  1.0000
  N   N524      1.0  0.05804622666376863  0.25747799224990037  0.7230433635960791  1.0000
  N   N525      1.0  0.05857799687919647  0.1894412996360784  0.6794749493315944  1.0000
  C   C1861     1.0  0.06950469574782742  0.16800308402961542  0.6780379101804419  1.0000
  C   C1862     1.0  0.0726178020373372  0.16100237739603804  0.6997567973512683  1.0000
  O   O539      1.0  0.0744469262109718  0.14094105137310298  0.6996914773898522  1.0000
  C   C1863     1.0  0.0950094031373258  0.16887705542122589  0.6695789751770673  1.0000
  C   C1864     1.0  0.11595603939889276  0.18426782422040935  0.685190445955496  1.0000
  C   C1865     1.0  0.13994999243938977  0.1876686768277103  0.6745922822157469  1.0000
  N   N526      1.0  0.1589542178588197  0.20294308232557712  0.6905956727626716  1.0000
  C   C1866     1.0  0.16883806604126406  0.2230798950959244  0.6889136837562091  1.0000
  N   N527      1.0  0.16220160772017048  0.23083215751816705  0.6712772941738839  1.0000
  N   N528      1.0  0.18559401842748305  0.2355498860621415  0.7051456941680898  1.0000
  N   N529      1.0  0.07321586243193225  0.17670448557787782  0.7182750064127097  1.0000
  C   C1867     1.0  0.07510751050094323  0.17038881696460723  0.7391773940658357  1.0000
  C   C1868     1.0  0.050185917013845706  0.160408751228005  0.7438804312877891  1.0000
  O   O540      1.0  0.04993519456762512  0.15391622525633794  0.7609616011980782  1.0000
  C   C1869     1.0  0.08533467479843546  0.19081780832232134  0.7579242229922333  1.0000
  C   C1870     1.0  0.11039711021524415  0.20171483455505285  0.7557196742944426  1.0000
  C   C1871     1.0  0.11352200175242173  0.2272060910237231  0.7662525180727757  1.0000
  N   N530      1.0  0.13794298248987485  0.2369111690005268  0.7626925801756026  1.0000
  C   C1872     1.0  0.1489089532042437  0.2576126977400928  0.7720823246291554  1.0000
  N   N531      1.0  0.13842897187281633  0.2716951549820319  0.7867303259766977  1.0000
  N   N532      1.0  0.17114937460379526  0.2637410459392634  0.767297637455432  1.0000
  N   N533      1.0  0.029148178708755537  0.15948721350813974  0.7299836094965311  1.0000
  C   C1873     1.0  0.005134891046826435  0.14879654941981604  0.733216947586624  1.0000
  C   C1874     1.0  0.0012126991881440282  0.12440812737383243  0.7197773655252782  1.0000
  O   O541      1.0  0.998967753336862  0.11999581438303211  0.6996424874187902  1.0000
  C   C1875     1.0  0.9829236947005676  0.16171634913307065  0.7271095311942263  1.0000
  C   C1876     1.0  0.9872285602187445  0.18625535925743944  0.7410226829758383  1.0000
  C   C1877     1.0  0.958234034404235  0.14913162682149783  0.7299999394868851  1.0000
  C   C1878     1.0  0.9705179621576815  0.2020336394329484  0.7319268783486577  1.0000
  N   N534      1.0  0.9999659217612583  0.10865176760854184  0.7310123988888333  1.0000
  C   C1879     1.0  0.9969964028715187  0.08476452232512555  0.7202509352455442  1.0000
  C   C1880     1.0  0.9718547016170964  0.07809587183042602  0.7050640442163199  1.0000
  O   O542      1.0  0.9528837305399196  0.08794599947257208  0.708836271988095  1.0000
  C   C1881     1.0  0.9993465582972814  0.07093697844749554  0.7376587049629133  1.0000
  C   C1882     1.0  0.026312852241313144  0.07252983192362436  0.7498898677380629  1.0000
  C   C1883     1.0  0.033955456604507425  0.09404027018114972  0.7685550467126904  1.0000
  O   O543      1.0  0.019476988291381055  0.10920064387509264  0.7713964650342872  1.0000
  O   O544      1.0  0.05482833464033193  0.09590580851003405  0.7803616297386358  1.0000
  N   N535      1.0  0.9718029896896903  0.06086498226645169  0.6876726044893047  1.0000
  C   C1884     1.0  0.9492444314370596  0.05317610217279213  0.67142426408707  1.0000
  C   C1885     1.0  0.9273603021532533  0.04525037966423165  0.681614178067969  1.0000
  O   O545      1.0  0.9058829731282292  0.05000338464921362  0.6762579412318555  1.0000
  C   C1886     1.0  0.954534525274323  0.03406990117406908  0.6529713749870445  1.0000
  C   C1887     1.0  0.966517034822815  0.04275310330077703  0.6360371749899416  1.0000
  O   O546      1.0  0.9667742860027625  0.06344469246481774  0.6369843144304739  1.0000
  O   O547      1.0  0.975801204385847  0.029182371463730473  0.6220587032469136  1.0000
  N   N536      1.0  0.9324117291700542  0.03340426641374174  0.6964744692901133  1.0000
  C   C1888     1.0  0.9126561313845049  0.024154706770261564  0.7066970432517203  1.0000
  C   C1889     1.0  0.9107620045753718  0.04075628479084462  0.7280403406444045  1.0000
  O   O548      1.0  0.9296353849660478  0.04764247413783428  0.7420514723681406  1.0000
  C   C1890     1.0  0.9180083780432097  0.0008208722760352064  0.7105345909849115  1.0000
  C   C1891     1.0  0.9175648354449365  0.9835958922463681  0.688734053862315  1.0000
  C   C1892     1.0  0.8988496658293061  0.9925102411280098  0.722814743731123  1.0000
  C   C1893     1.0  0.9250338634125554  0.9611281878236665  0.6916897821163899  1.0000
  N   N537      1.0  0.8878147272926199  0.04697671108978853  0.7304408492264431  1.0000
  C   C1894     1.0  0.881966987512694  0.062475131155527774  0.7496612478731068  1.0000
  C   C1895     1.0  0.8595837826297941  0.05181424779626539  0.7577119331176312  1.0000
  O   O549      1.0  0.8418652845867205  0.04012757272266059  0.7446316108440734  1.0000
  C   C1896     1.0  0.8759319748773357  0.08524895537641777  0.7448275707283214  1.0000
  C   C1897     1.0  0.8785825935569358  0.10409493765531411  0.7649461188444553  1.0000
  N   N538      1.0  0.9015839177862888  0.11575898337010414  0.7748257630086282  1.0000
  C   C1898     1.0  0.8614235517440234  0.11270828173785664  0.777503881426685  1.0000
  C   C1899     1.0  0.8985653450067232  0.13098288197552355  0.7924784825813074  1.0000
  N   N539      1.0  0.8743406337770299  0.12964464692189642  0.7944380814237879  1.0000
  N   N540      1.0  0.8610147614502699  0.05532180947957238  0.7792348604042094  1.0000
  C   C1900     1.0  0.840466605267605  0.04855360109468535  0.7899799940571446  1.0000
  C   C1901     1.0  0.8319507848138312  0.06993747953107596  0.8032399462245965  1.0000
  O   O550      1.0  0.8469210183836509  0.0829384898732038  0.8179695975239087  1.0000
  C   C1902     1.0  0.8486304803306828  0.03318360115998478  0.8050852351345991  1.0000
  C   C1903     1.0  0.8663617932958183  0.015258657007542913  0.7977367394752969  1.0000
  C   C1904     1.0  0.8720447966657449  0.0017837144829128953  0.8154384490190381  1.0000
  C   C1905     1.0  0.8551242053034582  0.9998514586220769  0.7757075824877444  1.0000
  N   N541      1.0  0.8081179378954234  0.07355522862993491  0.798079669272731  1.0000
  C   C1906     1.0  0.7963833293895184  0.09099516866179914  0.811813191160449  1.0000
  C   C1907     1.0  0.7855911445405455  0.08060607085026737  0.82869840118649  1.0000
  O   O551      1.0  0.7707105920743811  0.06319096790604656  0.8226073147844462  1.0000
  C   C1908     1.0  0.7750258094223376  0.09937107574224373  0.798406269079811  1.0000
  C   C1909     1.0  0.779561981856146  0.11665935721745463  0.7850646669605892  1.0000
  C   C1910     1.0  0.7537638812428809  0.12349973596071462  0.777454891455623  1.0000
  C   C1911     1.0  0.7975681008482858  0.13678860461076622  0.7985695689833512  1.0000
  N   N542      1.0  0.7922076573794089  0.09153212597793897  0.8495028088974921  1.0000
  C   C1912     1.0  0.7864293419520634  0.0820430451876683  0.8677597381132693  1.0000
  C   C1913     1.0  0.76527360811531  0.09362039415323158  0.8777536922099203  1.0000
  O   O552      1.0  0.7655877369006513  0.11449198100345452  0.8815422499720493  1.0000
  C   C1914     1.0  0.8098304705608182  0.08480290035869224  0.8852818177631164  1.0000
  C   C1915     1.0  0.8031789046797657  0.07519984005718715  0.9044695564290721  1.0000
  C   C1916     1.0  0.8308821023319211  0.07350915600947404  0.8753041936568196  1.0000
  N   N543      1.0  0.7470613935737145  0.08017108813947336  0.8823260895090416  1.0000
  C   C1917     1.0  0.7268248346977816  0.08963152526681517  0.8935284628918889  1.0000
  C   C1918     1.0  0.7377465983072651  0.10531462971586175  0.9154106499662553  1.0000
  O   O553      1.0  0.756351352749055  0.10085136723547501  0.9265640333780405  1.0000
  C   C1919     1.0  0.7086688534200312  0.07089833765948562  0.897219040711894  1.0000
  C   C1920     1.0  0.6901744840581399  0.059592189061620594  0.877002512653636  1.0000
  O   O554      1.0  0.6920166269416906  0.06537482563016261  0.859513092984497  1.0000
  O   O555      1.0  0.6738076530979817  0.04463498959519254  0.8787498216215146  1.0000
  N   N544      1.0  0.7262569413617721  0.12394273061155356  0.9214200864165291  1.0000
  C   C1921     1.0  0.7338099770991457  0.1388745219210528  0.9429920036741694  1.0000
  C   C1922     1.0  0.7306745481410998  0.12549159090833178  0.9602038135072903  1.0000
  O   O556      1.0  0.7143224367663414  0.1092313613534094  0.9567745155329493  1.0000
  C   C1923     1.0  0.7181929870083662  0.15896701327630997  0.9461600218028463  1.0000
  C   C1924     1.0  0.690199925074147  0.15257470655431962  0.9409507548799187  1.0000
  C   C1925     1.0  0.675894784557644  0.1698252279166443  0.9547822567097608  1.0000
  N   N545      1.0  0.6494561001688172  0.16739368889707712  0.945131232410544  1.0000
  C   C1926     1.0  0.6323165599923639  0.15105198217739602  0.9466009315424044  1.0000
  N   N546      1.0  0.6387487810579477  0.13571140614566743  0.9576563350120656  1.0000
  N   N547      1.0  0.6086229393559571  0.15006302738414729  0.9370642171756656  1.0000
  N   N548      1.0  0.7469625417070997  0.13220337327487153  0.9786077126362538  1.0000
  C   C1927     1.0  0.748958222482605  0.12189084228061273  0.9972565616205272  1.0000
  C   C1928     1.0  0.7626000733286654  0.10058527209084527  0.992912784186362  1.0000
  O   O557      1.0  0.7664428338844161  0.0904042588543141  0.007724085437444257  1.0000
  C   C1929     1.0  0.7232799945977575  0.11583843283315802  0.00400084763673117  1.0000
  C   C1930     1.0  0.7087322537187728  0.13614116890313735  0.012116852842671541  1.0000
  C   C1931     1.0  0.6805695697562701  0.1286881604434792  0.010777793633643151  1.0000
  N   N549      1.0  0.6754429318099082  0.11242814494732484  0.023956095849325003  1.0000
  C   C1932     1.0  0.6670158517451841  0.09048081137641216  0.01590541060480065  1.0000
  N   N550      1.0  0.6627245507324724  0.08138212064237758  0.9944478032796383  1.0000
  N   N551      1.0  0.6627643795355377  0.0774506577779447  0.029508292569686623  1.0000
  N   N552      1.0  0.7706600311519732  0.0938183437238401  0.9737577055011143  1.0000
  C   C1933     1.0  0.7807609804352444  0.07223201900728833  0.9672257093595125  1.0000
  C   C1934     1.0  0.8074492523261905  0.07536862755712684  0.9621144223787089  1.0000
  O   O558      1.0  0.8159072493568476  0.0929855154220195  0.9578359649059597  1.0000
  C   C1935     1.0  0.7635939724243033  0.056570834968460076  0.9474827510215207  1.0000
  C   C1936     1.0  0.7421632851079318  0.04532412406015369  0.9548965666422389  1.0000
  C   C1937     1.0  0.721616394829681  0.054889552720919006  0.9615592027066727  1.0000
  C   C1938     1.0  0.7397185660670711  0.022704994138323945  0.9576400050217116  1.0000
  N   N553      1.0  0.7061350988841788  0.03950618264468236  0.9680095488965047  1.0000
  C   C1939     1.0  0.7168458657731689  0.01958331639453577  0.96578867020836  1.0000
  C   C1940     1.0  0.7544515688999064  0.0047031786352091315  0.9537534673174585  1.0000
  C   C1941     1.0  0.7082840292401096  0.9991252769586962  0.9702140975942953  1.0000
  C   C1942     1.0  0.7461226101368807  0.98437221290909  0.9582932046358719  1.0000
  C   C1943     1.0  0.7231867414954878  0.9817564462141014  0.9663602198707502  1.0000
  N   N554      1.0  0.82084902611664  0.05804497464712226  0.9634044916166753  1.0000
  C   C1944     1.0  0.8460572974327913  0.056451897520632774  0.9576563350120656  1.0000
  C   C1945     1.0  0.845732546530045  0.034909489803974646  0.9399872854490324  1.0000
  O   O559      1.0  0.8298608059100772  0.018673064855942053  0.938109336558322  1.0000
  C   C1946     1.0  0.8655858601307992  0.05560790191809443  0.9772849834175794  1.0000
  C   C1947     1.0  0.879035471923864  0.07813423519996171  0.9893855062698969  1.0000
  N   N555      1.0  0.89268420279206  0.08162016671127541  0.00996129411594291  1.0000
  C   C1948     1.0  0.8811845789235446  0.09827101467637685  0.9838659695302433  1.0000
  C   C1949     1.0  0.9026178392105273  0.1029594144955936  0.016623930180376858  1.0000
  N   N556      1.0  0.8959706779576169  0.11342227662394475  0.0010941093537183198  1.0000
  N   N557      1.0  0.8634416394782229  0.03495479140712901  0.9271355830404308  1.0000
  C   C1950     1.0  0.8691677743376598  0.0145503944879404  0.9122589618279323  1.0000
  C   C1951     1.0  0.896996106846919  0.0116660491608713  0.9181867483264361  1.0000
  O   O560      1.0  0.9132200254428965  0.028212348005260207  0.9234286752300717  1.0000
  C   C1952     1.0  0.8628990195170358  0.01505175690335389  0.8879436061908192  1.0000
  C   C1953     1.0  0.8818826261914681  0.03165624219419744  0.8814442700299253  1.0000
  C   C1954     1.0  0.8625394532984468  0.9913776207193955  0.873540554698587  1.0000
  N   N558      1.0  0.9023976756024578  0.9906838657763175  0.9181214283650201  1.0000
  C   C1955     1.0  0.9280390343920932  0.9855793870973034  0.9241145348249398  1.0000
  C   C1956     1.0  0.9323068680586744  0.9638619919237454  0.9084540740754492  1.0000
  O   O561      1.0  0.9145933116481362  0.9509995555313775  0.8966638210398578  1.0000
  C   C1957     1.0  0.9328054317590198  0.9831643013663584  0.9478093508286007  1.0000
  N   N559      1.0  0.9561004819403072  0.9596606848889531  0.9084214140947412  1.0000
  C   C1958     1.0  0.9620924573796104  0.9393916882978065  0.8936264428340129  1.0000
  C   C1959     1.0  0.9533193541304071  0.9180622849107994  0.900566688734465  1.0000
  O   O562      1.0  0.9407428191973238  0.9018298187125382  0.887192426634535  1.0000
  C   C1960     1.0  0.9904403557739615  0.9411780476653927  0.8929405832391447  1.0000
  C   C1961     1.0  0.9985422266920069  0.9253217114839712  0.8738018345442511  1.0000
  C   C1962     1.0  0.024964247785373428  0.9332141941071097  0.8714176559525664  1.0000
  N   N560      1.0  0.04285392628880557  0.9330497124070102  0.8906707145799381  1.0000
  C   C1963     1.0  0.05762367685080712  0.9167575466868871  0.8920750937503825  1.0000
  N   N561      1.0  0.05653970285491709  0.8991756021392522  0.8751898837243415  1.0000
  N   N562      1.0  0.07354745859073038  0.9181133103954148  0.9102993629854518  1.0000
  N   N563      1.0  0.959540889760983  0.9177652862661507  0.921403756426175  1.0000
  C   C1964     1.0  0.9532448382740767  0.8976254473449892  0.9291605018443273  1.0000
  C   C1965     1.0  0.95166141327187  0.9048981915825796  0.9533942075296704  1.0000
  O   O563      1.0  0.961763894626135  0.9236590044828313  0.9641720011633135  1.0000
  C   C1966     1.0  0.9727699443517238  0.8804767485979523  0.92460443453556  1.0000
  C   C1967     1.0  0.9996021665187523  0.8883878209470949  0.9356598380052212  1.0000
  C   C1968     1.0  0.017999244184836033  0.874413143443858  0.9232980353072395  1.0000
  C   C1969     1.0  0.04025588089060747  0.8699772779024504  0.9387298761917741  1.0000
  N   N564      1.0  0.05917013368401201  0.8585763818800871  0.9262700935516684  1.0000
  N   N565      1.0  0.9388212286600771  0.8905671823305144  0.962424692195435  1.0000
  C   C1970     1.0  0.9347114769526321  0.8979017719345131  0.9853193386717497  1.0000
  C   C1971     1.0  0.9584338938930381  0.9080458957728331  0.0012574092572583675  1.0000
  O   O564      1.0  0.9576554801055204  0.9248446053108952  0.01624834040223475  1.0000
  C   C1972     1.0  0.9228254881302251  0.8760374666012809  0.989842745999809  1.0000
  C   C1973     1.0  0.9087031972227801  0.8635071100501304  0.9680748688579207  1.0000
  C   C1974     1.0  0.925571950580508  0.8678632684464791  0.9518591884363939  1.0000
  N   N566      1.0  0.9798608495396994  0.8990167060724465  0.9978771012539793  1.0000
  C   C1975     1.0  0.002720117851351885  0.9069332073612428  0.013651871935947989  1.0000
  C   C1976     1.0  0.011898385165160296  0.9317200319567915  0.015660460749490575  1.0000
  O   O565      1.0  0.02758307015405658  0.9417906817165173  0.03143523143145919  1.0000
  C   C1977     1.0  0.023432481104834653  0.8918123399131186  0.007462805591780182  1.0000
  C   C1978     1.0  0.04654091181515552  0.8935535118545218  0.024723605395963227  1.0000
  C   C1979     1.0  0.04078476451619577  0.8808941116259298  0.041935415229084255  1.0000
  C   C1980     1.0  0.06816905354868766  0.8843608635276248  0.013341602119221899  1.0000
  N   N567      1.0  0.002623540785430437  0.9418736815482758  0.0004082497588501193  1.0000
  C   C1981     1.0  0.010709744005511725  0.9656870959270083  0.0021392287363746253  1.0000
  C   C1982     1.0  0.9987786453122826  0.9817472486966767  0.019253058627371627  1.0000
  O   O566      1.0  0.00690381615772945  0.0020246337904269874  0.025017545222335312  1.0000
  C   C1983     1.0  0.004637142850074147  0.9713248445962867  0.9798324619128042  1.0000
  C   C1984     1.0  0.02079417819336719  0.9599657577267848  0.9633065116745513  1.0000
  O   O567      1.0  0.04173454437529879  0.9545172945513174  0.9701651076232333  1.0000
  O   O568      1.0  0.012390828208901878  0.9561447964028965  0.9433675934523115  1.0000
  N   N568      1.0  0.9798422462968494  0.9733631101761248  0.027532363736852045  1.0000
  C   C1985     1.0  0.9674919430433705  0.9874439734596174  0.04396033403298085  1.0000
  C   C1986     1.0  0.9818520013198037  0.9877670271410813  0.06629976083725937  1.0000
  O   O569      1.0  0.9806794916031004  0.9707320699597434  0.07371357645797755  1.0000
  C   C1987     1.0  0.9396511311068014  0.9786485095486857  0.042049725161562294  1.0000
  C   C1988     1.0  0.9278205012383565  0.9923611174293565  0.060502614261587685  1.0000
  C   C1989     1.0  0.9256825130500967  0.9794267772145012  0.0198409382801158  1.0000
  N   N569      1.0  0.9952365996392076  0.007164883431420946  0.07712654444196454  1.0000
  C   C1990     1.0  0.009800044802611757  0.009948704975413284  0.09871479168995885  1.0000
  C   C1991     1.0  0.994722849552358  0.021436830634346243  0.11602458146520392  1.0000
  O   O570      1.0  0.9850697157587567  0.038941994305940225  0.11453855234298947  1.0000
  C   C1992     1.0  0.035395728668126944  0.023685869297095232  0.10052742061925338  1.0000
  C   C1993     1.0  0.05572639391128623  0.020997275587826644  0.11849041000865863  1.0000
  C   C1994     1.0  0.050161207010356326  0.009674435571375931  0.13426518069062723  1.0000
  C   C1995     1.0  0.08053162715725871  0.03018927685040934  0.11981313922733301  1.0000
  C   C1996     1.0  0.06874230894646893  0.007385100831172567  0.15079113092888008  1.0000
  C   C1997     1.0  0.09925118779130936  0.028056263661644855  0.13630642948487784  1.0000
  C   C1998     1.0  0.09321132473866517  0.016640075119131535  0.1517056103887043  1.0000
  O   O571      1.0  0.11164337796133134  0.014454090364798122  0.16805193073306313  1.0000
  N   N570      1.0  0.9923741932210428  0.011374854727438937  0.13217494192531462  1.0000
  C   C1999     1.0  0.980831535854536  0.021514034924341015  0.15093810084206613  1.0000
  C   C2000     1.0  0.9993847676793467  0.023975549732980387  0.17175883854342222  1.0000
  O   O572      1.0  0.017425173616709182  0.012574206409895778  0.17226506824439633  1.0000
  C   C2001     1.0  0.9562556621246185  0.007463970555488459  0.15183625031153639  1.0000
  C   C2002     1.0  0.9407563052614608  0.9969903553176367  0.1296764534011519  1.0000
  C   C2003     1.0  0.9158740600613401  0.9851754835789259  0.13222393189637663  1.0000
  C   C2004     1.0  0.9194081732812591  0.9623766795030712  0.13715558898328606  1.0000
  N   N571      1.0  0.9032026695175552  0.9572401694806422  0.15314264953985676  1.0000
  N   N572      1.0  0.9949308718954295  0.03946422528320511  0.18888899842477322  1.0000
  C   C2005     1.0  0.010136447367311643  0.04266830790269882  0.21018330584639544  1.0000
  C   C2006     1.0  0.008953481444722656  0.020572275153654722  0.21774409138029963  1.0000
  O   O573      1.0  0.9899383871896962  0.006658462828762017  0.21204492474675196  1.0000
  C   C2007     1.0  0.0010043903754659226  0.06133575798171296  0.22700319591102033  1.0000
  C   C2008     1.0  0.008859794007932423  0.08536956130229637  0.22538652686597385  1.0000
  C   C2009     1.0  0.9859450326937742  0.0983412382160842  0.22233281866977497  1.0000
  C   C2010     1.0  0.9938862760423577  0.12345827745493605  0.22520689697207982  1.0000
  N   N573      1.0  0.9780570506927388  0.13405591184577206  0.20995468598143935  1.0000
  N   N574      1.0  0.029151311911864004  0.016937730050831205  0.23071010372137943  1.0000
  C   C2011     1.0  0.028402358880185385  0.9972887761942045  0.24050809793378228  1.0000
  C   C2012     1.0  0.005978971654302255  0.9959753306391138  0.25269027073786987  1.0000
  O   O574      1.0  0.9974754283761956  0.9778477641452572  0.25597259879902484  1.0000
  C   C2013     1.0  0.05354218602575557  0.0013994610239308806  0.2559889287893788  1.0000
  C   C2014     1.0  0.0705825906887209  0.015150166844820132  0.24588066476024986  1.0000
  C   C2015     1.0  0.05428786350423518  0.029998972802163775  0.23562543081793486  1.0000
  N   N575      1.0  0.9962145674989475  0.015398970911228884  0.2593202468215958  1.0000
  C   C2016     1.0  0.9726309917810491  0.016755633924781455  0.2682854115259444  1.0000
  C   C2017     1.0  0.9500074771543856  0.0036069664768684285  0.2521677110465417  1.0000
  O   O575      1.0  0.9292925693070797  0.0018886712469801128  0.2585527372749576  1.0000
  C   C2018     1.0  0.9680682666685676  0.041636758644107125  0.2755032672624145  1.0000
  O   O576      1.0  0.9912082253962712  0.05562742802449785  0.28415816215003703  1.0000
  N   N576      1.0  0.9533298428196058  0.9942584771931859  0.23168990314261972  1.0000
  C   C2019     1.0  0.9325845276783272  0.9838996645921366  0.21475570314551676  1.0000
  C   C2020     1.0  0.918301335410638  0.0005022323923764828  0.20500669890417592  1.0000
  O   O577      1.0  0.9042315351675515  0.9936237083042191  0.18732131935078875  1.0000
  N   N577      1.0  0.9214445925780282  0.022091183548128335  0.21584981249923507  1.0000
  C   C2021     1.0  0.9082837827408767  0.03904643358440754  0.20765215734152467  1.0000
  C   C2022     1.0  0.9213040392490435  0.04611637960375777  0.18998310777849153  1.0000
  O   O578      1.0  0.9442552187228082  0.04546331104258382  0.18980347788459745  1.0000
  C   C2023     1.0  0.9070746346389682  0.05973082849267686  0.2262356863643821  1.0000
  C   C2024     1.0  0.888461290661152  0.07592982174799076  0.22055284972118847  1.0000
  C   C2025     1.0  0.8614928682592834  0.06861245626549252  0.2230676682357052  1.0000
  C   C2026     1.0  0.8453662942607407  0.08845113802864095  0.22461901731933565  1.0000
  N   N578      1.0  0.8189869534088623  0.08104275551747286  0.2132043540618863  1.0000
  N   N579      1.0  0.9061577802647504  0.05283242054988657  0.17499217663351513  1.0000
  C   C2027     1.0  0.9156312871580609  0.0604783211306199  0.15719248714764994  1.0000
  C   C2028     1.0  0.9347373675347839  0.08136667539445755  0.16601068193881252  1.0000
  O   O579      1.0  0.9338036077876689  0.09467090785610588  0.18361441154042965  1.0000
  C   C2029     1.0  0.8935556102745175  0.0655177142336433  0.1420055961184255  1.0000
  S   S31       1.0  0.9012974864365937  0.0695743047268431  0.11664512109865609  1.0000
  N   N580      1.0  0.9525489777488529  0.08393860126900952  0.1536652092311849  1.0000
  C   C2030     1.0  0.9713690769852174  0.1036594875384735  0.15990326554641474  1.0000
  C   C2031     1.0  0.9605544548926154  0.124914741192222  0.15557581810260346  1.0000
  O   O580      1.0  0.9701176964570628  0.14380241844700842  0.1665332416301407  1.0000
  C   C2032     1.0  0.9939080980624194  0.09913556453134599  0.14765577278091116  1.0000
  C   C2033     1.0  0.0164851030697806  0.09352181082538594  0.1611933347843811  1.0000
  C   C2034     1.0  0.03185099302579751  0.1103848304029778  0.17664150565926962  1.0000
  C   C2035     1.0  0.022305637808158283  0.07135613427537248  0.1584172364242003  1.0000
  C   C2036     1.0  0.05265719101330899  0.10530021187625702  0.1892645882029153  1.0000
  C   C2037     1.0  0.043021034009967055  0.0660622226316439  0.17092600903536798  1.0000
  C   C2038     1.0  0.058278836446169685  0.08310185691851435  0.1864231698813185  1.0000
  N   N581      1.0  0.9408100367397514  0.12221885823339579  0.1398990273627589  1.0000
  C   C2039     1.0  0.9304954343502965  0.14094774456003953  0.1324198917806247  1.0000
  C   C2040     1.0  0.9020891870695222  0.13901632123193608  0.13219127191566865  1.0000
  O   O581      1.0  0.8895609850559564  0.12035051740405782  0.12768419457796332  1.0000
  C   C2041     1.0  0.936141868331835  0.14096377932271817  0.10945992534289399  1.0000
  C   C2042     1.0  0.9284542022268512  0.11856553323256773  0.09330956488278327  1.0000
  C   C2043     1.0  0.9041157143397364  0.11330682185038964  0.08200921155781198  1.0000
  C   C2044     1.0  0.9455532167653735  0.10274242734497564  0.08945568715923814  1.0000
  C   C2045     1.0  0.8970778557279423  0.09258551384156961  0.06724690027779166  1.0000
  C   C2046     1.0  0.9386356211981892  0.08207898695403536  0.0745953959370938  1.0000
  C   C2047     1.0  0.9145209718367306  0.0770167647286041  0.06355632245778657  1.0000
  N   N582      1.0  0.8918977695082668  0.1584915151724272  0.13684531916656  1.0000
  C   C2048     1.0  0.8647274192888816  0.15899048420616585  0.13508168020832748  1.0000
  C   C2049     1.0  0.8544813373214282  0.17243073565424874  0.11922525957458885  1.0000
  O   O582      1.0  0.8313682119164043  0.17158407561499583  0.11403232264201532  1.0000
  C   C2050     1.0  0.8571208706772775  0.16881789201486525  0.15748642697402201  1.0000
  C   C2051     1.0  0.8650233209179478  0.15586333934078145  0.17443695696147898  1.0000
  C   C2052     1.0  0.8444642180239003  0.15331241557266562  0.1879255289938869  1.0000
  O   O583      1.0  0.8245380687608989  0.14138003387491302  0.17967888386511452  1.0000
  N   N583      1.0  0.8488613946815408  0.16486333819572133  0.208729936704889  1.0000
  N   N584      1.0  0.8707144055222468  0.1849068883954836  0.11172979400210065  1.0000
  C   C2053     1.0  0.8624067735209757  0.1977177950062431  0.09598768330084005  1.0000
  C   C2054     1.0  0.8796611466490437  0.19556531667321714  0.07879220345807303  1.0000
  O   O584      1.0  0.9016695051804652  0.1915404482864499  0.08271140114303419  1.0000
  N   N585      1.0  0.8690818780309162  0.19758452641200072  0.05932685495609934  1.0000
  C   C2055     1.0  0.8839028592556559  0.19809700365101449  0.04180477530625222  1.0000
  C   C2056     1.0  0.8694890412676751  0.20907213836677602  0.02549111494260145  1.0000
  O   O585      1.0  0.8477604266563545  0.21401672216101908  0.027058794016585907  1.0000
  C   C2057     1.0  0.8898995079016657  0.1743874198528054  0.03076570182694499  1.0000
  C   C2058     1.0  0.9131957534767499  0.17500218600658562  0.01980827829940779  1.0000
  O   O586      1.0  0.9252518949070455  0.1937171597127577  0.021800537122596372  1.0000
  O   O587      1.0  0.9192562445821131  0.15691557224609043  0.00903048466576464  1.0000
  N   N586      1.0  0.8820747820518526  0.21251856852028145  0.00965102429921682  1.0000
  C   C2059     1.0  0.873117313613762  0.22394748014001642  0.992847464224946  1.0000
  C   C2060     1.0  0.8853137531652534  0.21459346673846597  0.972810566060582  1.0000
  O   O588      1.0  0.9032690107067809  0.2031368489427695  0.9738883454239464  1.0000
  C   C2061     1.0  0.8805517525320202  0.24944347089491883  0.0006205396334521814  1.0000
  C   C2062     1.0  0.9083426781517315  0.2551354233741128  0.007577115524258215  1.0000
  N   N587      1.0  0.9200164288725677  0.2547531934665374  0.028071253418534205  1.0000
  C   C2063     1.0  0.9269403477279896  0.26062590505762756  0.996587032016013  1.0000
  C   C2064     1.0  0.9446202477313619  0.25992456103517436  0.0294266426179166  1.0000
  N   N588      1.0  0.9493459717111604  0.2632659330673919  0.010451193826563055  1.0000
  N   N589      1.0  0.8762647430381799  0.22054648494982212  0.9547495967290528  1.0000
  C   C2065     1.0  0.8842959080080712  0.21154436395267523  0.9339451890180507  1.0000
  C   C2066     1.0  0.8621007956709226  0.20394804255344254  0.9157535797636894  1.0000
  O   O589      1.0  0.8651023959521542  0.20091856197440955  0.8964188711845478  1.0000
  N   N590      1.0  0.8395414844353903  0.20135905902705087  0.9218773261464411  1.0000
  C   C2067     1.0  0.8166277238988007  0.19198997205212873  0.9065434652040307  1.0000
  C   C2068     1.0  0.8096197250651702  0.20686105054219775  0.890621724608876  1.0000
  O   O590      1.0  0.819643829956882  0.22640403267733664  0.8933651629883488  1.0000
  C   C2069     1.0  0.7946036588314506  0.18893669627337056  0.9190032478441363  1.0000
  C   C2070     1.0  0.7995970848097048  0.1746447935555097  0.935071958352477  1.0000
  C   C2071     1.0  0.8004830607473263  0.15146977387619356  0.9278377726256529  1.0000
  C   C2072     1.0  0.8032911898531037  0.18421357660282878  0.9573623951856935  1.0000
  C   C2073     1.0  0.805048493204573  0.13804504800578596  0.9426980638477973  1.0000
  C   C2074     1.0  0.807944829567081  0.1708330769692971  0.9725329562245639  1.0000
  C   C2075     1.0  0.8087693492424394  0.14769563175002104  0.9651191406038458  1.0000
  N   N591      1.0  0.792340369130268  0.1966673048212803  0.873491564727525  1.0000
  C   C2076     1.0  0.778314818875284  0.20790135453664707  0.8584843035921946  1.0000
  C   C2077     1.0  0.7743216387541161  0.23178504078190615  0.8703562065795561  1.0000
  O   O591      1.0  0.7652889034615291  0.23470996283306206  0.8876823263451552  1.0000
  C   C2078     1.0  0.7529469824020063  0.1936962057487127  0.8487679593315618  1.0000
  C   C2079     1.0  0.7387328089559229  0.20143257147201574  0.8296782006077302  1.0000
  O   O592      1.0  0.7418242671887083  0.22174775467616667  0.8287800511382599  1.0000
  O   O593      1.0  0.7242657515043525  0.18678955677422243  0.8154874389901001  1.0000
  N   N592      1.0  0.7805896980854592  0.2488828901055811  0.8612767319427295  1.0000
  C   C2080     1.0  0.7807082037651187  0.27235443253847474  0.873475234737171  1.0000
  C   C2081     1.0  0.7544868846400239  0.2802050251257124  0.8738998144863751  1.0000
  O   O594      1.0  0.75238612072756  0.29920739084032966  0.8849878779367444  1.0000
  C   C2082     1.0  0.7974496234333961  0.28878494385441467  0.8648203398495484  1.0000
  C   C2083     1.0  0.7900190778693646  0.28741835556051176  0.8409948839230555  1.0000
  O   O595      1.0  0.777718527944363  0.2704011412772704  0.828763721147906  1.0000
  N   N593      1.0  0.7977908327382837  0.30541818698515855  0.8339566580804795  1.0000
  N   N594      1.0  0.7345037181775298  0.26646085220110516  0.8627301010842359  1.0000
  C   C2084     1.0  0.7092026104693605  0.2724978835417882  0.8659144492032668  1.0000
  C   C2085     1.0  0.7000908958959858  0.2644986250703513  0.8849388879656823  1.0000
  O   O596      1.0  0.678767295109959  0.2679256374842744  0.8892663354094936  1.0000
  C   C2086     1.0  0.6900923345283286  0.26316282628392385  0.8450937115019107  1.0000
  C   C2087     1.0  0.6875824468356548  0.2376125269492989  0.8363081766914562  1.0000
  C   C2088     1.0  0.6678985033405274  0.22490862454078087  0.8455999412028848  1.0000
  C   C2089     1.0  0.6681225208383728  0.19918346622140237  0.8375002659872985  1.0000
  N   N595      1.0  0.6593910367058784  0.1864426031232265  0.8531933867174971  1.0000
  N   N596      1.0  0.7156168631019759  0.2538069807939634  0.8961739213292377  1.0000
  C   C2090     1.0  0.7090698976370761  0.2470974155634169  0.9155576198794413  1.0000
  C   C2091     1.0  0.7105496104455803  0.2680942442193783  0.9341411489022987  1.0000
  O   O597      1.0  0.7297566639583744  0.2816924015857538  0.9395627056998284  1.0000
  C   C2092     1.0  0.726351074550661  0.2298567243032283  0.9217466862236091  1.0000
  C   C2093     1.0  0.7240232942395934  0.227312599782852  0.9446576626902778  1.0000
  C   C2094     1.0  0.7196160431767786  0.2071099354916458  0.9053187159274804  1.0000
  N   N597      1.0  0.6903305275715359  0.27062256233101883  0.9443800528542597  1.0000
  C   C2095     1.0  0.6881672027372887  0.29175182704849  0.9601221635555204  1.0000
  C   C2096     1.0  0.707772465484568  0.29586710339712724  0.9805836414690883  1.0000
  O   O598      1.0  0.7169405591732672  0.3153929992900765  0.989940725941933  1.0000
  C   C2097     1.0  0.6615755162046442  0.2918100990815663  0.9663112298996881  1.0000
  C   C2098     1.0  0.6442136315823607  0.3038743316607963  0.9526593579637401  1.0000
  O   O599      1.0  0.6404560290101213  0.2978385517476453  0.9324101699247742  1.0000
  N   N598      1.0  0.6338081009461081  0.3212449038347413  0.9636657714623393  1.0000
  N   N599      1.0  0.7142708314492774  0.2781122553528567  0.9881444270029925  1.0000
  C   C2099     1.0  0.7349851945674595  0.2809979281024869  0.006172736353813804  1.0000
  C   C2100     1.0  0.7609039209879503  0.28887807306484287  0.001224749276550358  1.0000
  O   O600      1.0  0.7783197031732092  0.2958749731231349  0.016607600190022852  1.0000
  C   C2101     1.0  0.7352934897893477  0.25895206441855806  0.013472242042053937  1.0000
  O   O601      1.0  0.741350930162235  0.24188841616961215  0.9964890520738889  1.0000
  N   N600      1.0  0.7639619990120701  0.28833559633441747  0.9806489614305044  1.0000
  C   C2102     1.0  0.7881197887276776  0.2962092988751233  0.9751457546812048  1.0000
  C   C2103     1.0  0.7902059369745963  0.3210911944273276  0.9744272351056286  1.0000
  O   O602      1.0  0.8110588548690256  0.3309147625512373  0.9736597255589903  1.0000
  C   C2104     1.0  0.7925685795334353  0.28186325423162883  0.9529532977901123  1.0000
  C   C2105     1.0  0.7938368333020983  0.2565765422985593  0.9517122185232079  1.0000
  S   S32       1.0  0.8209718000374081  0.25046005116551767  0.9681891787903987  1.0000
  C   C2106     1.0  0.8068883835418212  0.2462542571971934  0.9913614351027314  1.0000
  N   N601      1.0  0.7694223572800855  0.3315001713899099  0.9744272351056286  1.0000
  C   C2107     1.0  0.7707935607643202  0.3553732567001544  0.9742149452310265  1.0000
  C   C2108     1.0  0.7872750671683273  0.36960495071115  0.9948887130191965  1.0000
  O   O603      1.0  0.7896426645472494  0.3634116358165426  0.01224749276550358  1.0000
  C   C2109     1.0  0.7442122236571975  0.3628627595499918  0.9718634266200498  1.0000
  C   C2110     1.0  0.7249660277796215  0.34690139854121466  0.9534268675103784  1.0000
  C   C2111     1.0  0.7351244874029926  0.3407136935355247  0.9318386202623841  1.0000
  O   O604      1.0  0.7406533970693158  0.3554946304151813  0.9222365859342293  1.0000
  N   N602      1.0  0.7371435081992879  0.31870870170191806  0.9238205949985677  1.0000
  N   N603      1.0  0.7993945116114219  0.3886449194761573  0.9929617741574239  1.0000
  C   C2112     1.0  0.8170720866206004  0.40267100788044885  0.01108806345036924  1.0000
  C   C2113     1.0  0.809375175842062  0.42680961237802734  0.015252210990640459  1.0000
  O   O605      1.0  0.7878358032637517  0.4305596690662496  0.008573244935852506  1.0000
  C   C2114     1.0  0.8440350893403744  0.3994683954508375  0.006009436450273757  1.0000
  O   O606      1.0  0.8617809450550432  0.4103349557082507  0.024854245318795265  1.0000
  C   C2115     1.0  0.8491598837849321  0.40882220438521255  0.986348128064052  1.0000
  N   N604      1.0  0.8265719115452637  0.443491506610469  0.02692815409375387  1.0000
  C   C2116     1.0  0.8203009675468741  0.46612299319183836  0.03700375814217481  1.0000
  C   C2117     1.0  0.8320105102101869  0.4837967161938571  0.026536234325257757  1.0000
  O   O607      1.0  0.8526123888761413  0.4816756791362034  0.02005322815471786  1.0000
  C   C2118     1.0  0.8291558402865083  0.47193804633580655  0.06198864338380211  1.0000
  C   C2119     1.0  0.8569211353896381  0.46894089674557793  0.06719791030672964  1.0000
  C   C2120     1.0  0.8252351687044565  0.49581863984238694  0.07226020731647112  1.0000
  N   N605      1.0  0.8186814843977331  0.5009757238537159  0.024201045704635073  1.0000
  C   C2121     1.0  0.8309223782127447  0.5209873947001213  0.01923672863701762  1.0000
  C   C2122     1.0  0.822665453085194  0.5423787623340907  0.03272530066942556  1.0000
  O   O608      1.0  0.7999827174120571  0.544801327671022  0.032349710891283454  1.0000
  C   C2123     1.0  0.8254633467028818  0.5213448208139856  0.9949377029902585  1.0000
  C   C2124     1.0  0.8344019170446362  0.5436755785393059  0.9911001552570674  1.0000
  C   C2125     1.0  0.8598264413342058  0.5492559971816297  0.9905286055946773  1.0000
  C   C2126     1.0  0.8179302817297172  0.5599671161938717  0.989891735970871  1.0000
  C   C2127     1.0  0.868321133398874  0.5704761410484596  0.9881770869837005  1.0000
  C   C2128     1.0  0.8264568516331683  0.5810638262721777  0.9875728773406024  1.0000
  C   C2129     1.0  0.8515639812364679  0.5862055748778319  0.9866257379000701  1.0000
  N   N606      1.0  0.8409817011866588  0.5582157855457366  0.043780704139086794  1.0000
  C   C2130     1.0  0.8362486741294546  0.5809011619964572  0.05499940751228807  1.0000
  C   C2131     1.0  0.8557083312067414  0.5979072424573411  0.05018206035785667  1.0000
  O   O609      1.0  0.8780798492708171  0.5942881230503962  0.0506393000877688  1.0000
  C   C2132     1.0  0.8376736761051855  0.5838509211352565  0.07996796276356137  1.0000
  C   C2133     1.0  0.8348004705655211  0.6087468481884862  0.09154592592455076  1.0000
  C   C2134     1.0  0.8179642952774681  0.5675662779066444  0.08543850953215297  1.0000
  N   N607      1.0  0.8471547450122714  0.6164872488410175  0.04554434309731931  1.0000
  C   C2135     1.0  0.8642161117387422  0.635129552595406  0.043274474438112644  1.0000
  C   C2136     1.0  0.86067688401988  0.6568749394795681  0.0591798850429133  1.0000
  O   O610      1.0  0.8391198218186391  0.6621469354166607  0.06120480384680989  1.0000
  N   N608      1.0  0.88127799753041  0.6693843558085647  0.07080683817496469  1.0000
  C   C2137     1.0  0.8802461522583378  0.6902070011344368  0.08730012843250952  1.0000
  C   C2138     1.0  0.8998862808501416  0.7083070755110998  0.08489961985047081  1.0000
  O   O611      1.0  0.9214780555818619  0.7037491560808469  0.08197655157710396  1.0000
  C   C2139     1.0  0.8847010976870568  0.6861207916782541  0.11035807481236425  1.0000
  C   C2140     1.0  0.8846379771415233  0.706494927273728  0.12954581347831987  1.0000
  C   C2141     1.0  0.9064894612244351  0.720824347270929  0.1389682179125806  1.0000
  C   C2142     1.0  0.8625984607719165  0.7108734151990738  0.13842932823089846  1.0000
  C   C2143     1.0  0.9064206222171942  0.7392379401687275  0.1567515774080918  1.0000
  C   C2144     1.0  0.8622830314364517  0.729041187295753  0.1559514078807456  1.0000
  C   C2145     1.0  0.8841990198411015  0.7431047026891808  0.16496556255615621  1.0000
  O   O612      1.0  0.8835142612365617  0.7608951029330807  0.18222636236033926  1.0000
  N   N609      1.0  0.8923134638875402  0.7288547283735913  0.0858630892813571  1.0000
  C   C2146     1.0  0.9099576644033259  0.7476767395759369  0.08524254964790491  1.0000
  C   C2147     1.0  0.8993085460001097  0.7626570632910082  0.0711497679723988  1.0000
  O   O613      1.0  0.8773268164188945  0.7589708932283621  0.061743693528492044  1.0000
  N   N610      1.0  0.9151776669104748  0.7796915065837605  0.06902686922637818  1.0000
  C   C2148     1.0  0.9057987253838344  0.7969028358252592  0.05788981580494692  1.0000
  C   C2149     1.0  0.8936078799406173  0.7879797606136817  0.034227659781994005  1.0000
  O   O614      1.0  0.877367563167124  0.7984307227903792  0.026258624489239674  1.0000
  C   C2150     1.0  0.9297602207981123  0.8129021853008654  0.05934318494645334  1.0000
  C   C2151     1.0  0.9514938131121745  0.7984998907002773  0.06239689314265224  1.0000
  C   C2152     1.0  0.942581074082835  0.783999660758298  0.07676728465417643  1.0000
  N   N611      1.0  0.9016998123112793  0.7698599688520467  0.022257776852508505  1.0000
  C   C2153     1.0  0.8915331554183661  0.7618930225550848  0.9991345105112377  1.0000
  C   C2154     1.0  0.868452438754197  0.7444878734815642  0.9950683429130905  1.0000
  O   O615      1.0  0.8540764645613178  0.740104970098561  0.9773013134079334  1.0000
  C   C2155     1.0  0.912564426747094  0.752322502781998  0.986364458054406  1.0000
  O   O616      1.0  0.935330158683659  0.7673776755873316  0.9938109336558322  1.0000
  C   C2156     1.0  0.9051780351152668  0.7501076129012885  0.9617061726198588  1.0000
  N   N612      1.0  0.864073299591744  0.7347718471508212  0.011022743488953221  1.0000
  C   C2157     1.0  0.8416990272610121  0.7188755574228598  0.008197655157710395  1.0000
  C   C2158     1.0  0.8193849450615691  0.7315462865338201  0.014386721501878204  1.0000
  O   O617      1.0  0.8221819857065911  0.7515377973981145  0.024690945415255214  1.0000
  C   C2159     1.0  0.8460137082135628  0.7013647601600085  0.021702557180472343  1.0000
  C   C2160     1.0  0.8628255923564692  0.6841773260000317  0.01255776258222967  1.0000
  C   C2161     1.0  0.8537095637356724  0.6671430540649506  0.9941048734822043  1.0000
  C   C2162     1.0  0.8879175494172861  0.6854994264091835  0.022045486977906443  1.0000
  C   C2163     1.0  0.8690612515664007  0.6512989127769901  0.9852703487006877  1.0000
  C   C2164     1.0  0.9036175434347484  0.669930144408875  0.013390592090283912  1.0000
  C   C2165     1.0  0.894235747288187  0.652731643014405  0.9948723830288425  1.0000
  N   N613      1.0  0.7969559289292825  0.7196052403904137  0.00756078553390421  1.0000
  C   C2166     1.0  0.7742987867397294  0.7292184543262122  0.013423252070991923  1.0000
  C   C2167     1.0  0.7715777195655034  0.7288391886851691  0.036840458238634764  1.0000
  O   O618      1.0  0.7833105464975074  0.7167048792994232  0.046703772412453645  1.0000
  C   C2168     1.0  0.751041744153462  0.7163886630476413  0.9978607712636254  1.0000
  C   C2169     1.0  0.7488261974054622  0.7216729729431768  0.9755213444593468  1.0000
  C   C2170     1.0  0.7246079813429012  0.7104050125757341  0.9613469128320707  1.0000
  C   C2171     1.0  0.7207510209041412  0.7187917728319038  0.9407058050246087  1.0000
  N   N614      1.0  0.6990314938212898  0.7048400292208816  0.9263190835227305  1.0000
  N   N615      1.0  0.7552651223289396  0.7421930240306576  0.04538104319377926  1.0000
  C   C2172     1.0  0.7516224158476523  0.746597172169215  0.06806339979549189  1.0000
  C   C2173     1.0  0.7277421396769921  0.732446560314946  0.06954942891770634  1.0000
  O   O619      1.0  0.7079684684698963  0.7327242506934015  0.05730193615220275  1.0000
  C   C2174     1.0  0.7492781777035961  0.7718318165453228  0.07657132476992838  1.0000
  C   C2175     1.0  0.7447130991574953  0.778930667691049  0.09990688098580121  1.0000
  C   C2176     1.0  0.7624165724397574  0.7767135508983256  0.11698805089609018  1.0000
  C   C2177     1.0  0.7227211161285524  0.7883371007720682  0.10487119805341864  1.0000
  C   C2178     1.0  0.7583233925994605  0.7835842003724651  0.13841299824054445  1.0000
  C   C2179     1.0  0.7183899316739063  0.795285911021927  0.1262798154075189  1.0000
  C   C2180     1.0  0.7361729852858159  0.7930126014528097  0.14293640556860376  1.0000
  O   O620      1.0  0.7318212023357018  0.7997604452039824  0.16419805300951798  1.0000
  N   N616      1.0  0.7297830044829108  0.7201526129887221  0.08432807018808064  1.0000
  C   C2181     1.0  0.708506829168335  0.7064036771875327  0.08875349757401593  1.0000
  C   C2182     1.0  0.6917999406911726  0.6937806810589161  0.06767148002699577  1.0000
  O   O621      1.0  0.6689784462385859  0.6956531566992791  0.06448713190796485  1.0000
  C   C2183     1.0  0.6932700003031267  0.7211215029780741  0.10397304858394839  1.0000
  C   C2184     1.0  0.7092320336616698  0.7380345155595276  0.12306280730777996  1.0000
  C   C2185     1.0  0.6932275767777988  0.7466321580031413  0.14051956699621107  1.0000
  N   N617      1.0  0.6802526138048235  0.7274284117830488  0.14608809370692669  1.0000
  C   C2186     1.0  0.6837369141389968  0.7229998593779662  0.1656514221510244  1.0000
  N   N618      1.0  0.6994582269413809  0.7369004680309837  0.18188343256290515  1.0000
  N   N619      1.0  0.6713047193407629  0.7047858054900685  0.1689827401832414  1.0000
  N   N620      1.0  0.703519386426332  0.6814260875011262  0.05263155891095738  1.0000
  C   C2187     1.0  0.6905513840513118  0.6707173618705591  0.030716711855882976  1.0000
  C   C2188     1.0  0.6924443725705562  0.6452700271053649  0.025719734807557515  1.0000
  O   O622      1.0  0.7126440716253877  0.6377437396271232  0.030569741942696935  1.0000
  C   C2189     1.0  0.7013581031567484  0.6811773406154173  0.01352123201311595  1.0000
  O   O623      1.0  0.6953323103488127  0.7040056684760406  0.01605238051798669  1.0000
  C   C2190     1.0  0.690510675148446  0.6680747978962266  0.9907082354885712  1.0000
  N   N621      1.0  0.6712289407803299  0.6320867827578762  0.016542280228606834  1.0000
  C   C2191     1.0  0.6705551036229962  0.6077036611793998  0.009144794598242674  1.0000
  C   C2192     1.0  0.6667477633221535  0.6013865462630145  0.9843232092601554  1.0000
  O   O624      1.0  0.6517041256330103  0.6106166501693979  0.9737577055011143  1.0000
  C   C2193     1.0  0.6497064392771912  0.5953388472150244  0.017816019476219205  1.0000
  C   C2194     1.0  0.6469346234047133  0.5697889665907708  0.008899844742932601  1.0000
  C   C2195     1.0  0.6318721216946418  0.5576474106565643  0.02230676682357052  1.0000
  C   C2196     1.0  0.6044555813900087  0.5537519474769103  0.012786382447185737  1.0000
  N   N622      1.0  0.5927521668817987  0.5319089011944069  0.01580743066267662  1.0000
  N   N623      1.0  0.6808163724587599  0.5860534214313501  0.9750967647101427  1.0000
  C   C2197     1.0  0.6796802152687643  0.5788405098913502  0.9514346086871898  1.0000
  C   C2198     1.0  0.6726278018954024  0.5533362734011654  0.9449516025166499  1.0000
  O   O625      1.0  0.6770057271367582  0.5417536000813273  0.9584238445587039  1.0000
  C   C2199     1.0  0.7048984075824615  0.5856719339507314  0.9440534530471797  1.0000
  C   C2200     1.0  0.7107437342485861  0.6115745919892385  0.9493606999122312  1.0000
  C   C2201     1.0  0.7264276536605536  0.5750723011862524  0.9547985867001147  1.0000
  N   N624      1.0  0.6613443102401406  0.5440448143146198  0.924637094516268  1.0000
  C   C2202     1.0  0.6552820881923718  0.5193253259094153  0.9170109890209477  1.0000
  C   C2203     1.0  0.6789040620945057  0.5071853449348979  0.9183827082106841  1.0000
  O   O626      1.0  0.700070561336559  0.5172797945979309  0.9190359078248443  1.0000
  C   C2204     1.0  0.6430329488036257  0.5159322909198606  0.8931038831426847  1.0000
  C   C2205     1.0  0.6357332439876222  0.5384181949485448  0.8908830044545402  1.0000
  C   C2206     1.0  0.6528745455495688  0.5560943254429853  0.907882524413059  1.0000
  N   N625      1.0  0.6759677428995896  0.48533079841235505  0.9185786680949322  1.0000
  C   C2207     1.0  0.697513803497656  0.47184631602381394  0.9174518987605059  1.0000
  C   C2208     1.0  0.7088203419767203  0.47149367667329944  0.8966474910495038  1.0000
  O   O627      1.0  0.6958381010021746  0.47349191759957904  0.879876590955941  1.0000
  C   C2209     1.0  0.6859082807859934  0.44808427925220384  0.917647858644754  1.0000
  C   C2210     1.0  0.6612940553038447  0.45132232500089103  0.9257801938410484  1.0000
  C   C2211     1.0  0.6523109443494988  0.47186459651283574  0.9194441575836945  1.0000
  N   N626      1.0  0.7333195206453091  0.46865750203770273  0.8978069203646382  1.0000
  C   C2212     1.0  0.746553984827413  0.4678543878770791  0.8790274314575326  1.0000
  C   C2213     1.0  0.7671324923156699  0.45199955517947205  0.879941910917357  1.0000
  O   O628      1.0  0.7727100056210192  0.44454767908236414  0.8962065813099457  1.0000
  C   C2214     1.0  0.7570343996382046  0.4917173908444769  0.8781129519977083  1.0000
  C   C2215     1.0  0.7762364321822592  0.5037536411202674  0.8975619705093281  1.0000
  C   C2216     1.0  0.8019677162935894  0.5012701963098172  0.8976926104321601  1.0000
  C   C2217     1.0  0.768839050569592  0.5180806154431044  0.9154433099469633  1.0000
  C   C2218     1.0  0.8196667548974532  0.5124111162614716  0.9155902798601493  1.0000
  C   C2219     1.0  0.7866008495690731  0.5292292339475233  0.9335042792784926  1.0000
  C   C2220     1.0  0.8119163923160816  0.5264209701394913  0.9336512491916786  1.0000
  N   N627      1.0  0.7780988342937927  0.44628469739841325  0.8621748814121997  1.0000
  C   C2221     1.0  0.7975050941812323  0.43057987230274153  0.8611787520006055  1.0000
  C   C2222     1.0  0.8235296625180789  0.4434865016380531  0.8694417271197319  1.0000
  O   O629      1.0  0.8283400142664334  0.4625298200860318  0.866469668875303  1.0000
  C   C2223     1.0  0.797954787904272  0.416718317891239  0.8378921857557946  1.0000
  C   C2224     1.0  0.7736543072939907  0.40495515688340045  0.8243056337812626  1.0000
  C   C2225     1.0  0.7774455612800112  0.3959994032640937  0.8005781577968938  1.0000
  O   O630      1.0  0.774793625164335  0.40906867769194055  0.7875958154654599  1.0000
  O   O631      1.0  0.7839592987858218  0.3762055425094462  0.7953035709125502  1.0000
  N   N628      1.0  0.8408644635429643  0.43263929234792975  0.8791907313610727  1.0000
  C   C2226     1.0  0.8659274815830091  0.4445117128759455  0.8881885560461293  1.0000
  C   C2227     1.0  0.8813938928493749  0.449410229122166  0.8707807863287602  1.0000
  O   O632      1.0  0.8999667334401792  0.46373576654905274  0.8762839930780598  1.0000
  C   C2228     1.0  0.8806897765222403  0.4315521023834723  0.9028692173743796  1.0000
  C   C2229     1.0  0.8871639237420824  0.408701996879952  0.890458424705336  1.0000
  O   O633      1.0  0.8790599717110732  0.4009255493223907  0.8707481263480522  1.0000
  N   N629      1.0  0.9019622925518811  0.3977991752898848  0.9021670277891574  1.0000
  N   N630      1.0  0.8746540537395853  0.43809357947108285  0.8499927086081122  1.0000
  C   C2230     1.0  0.8887391842738229  0.4437052063312536  0.8332707984856113  1.0000
  C   C2231     1.0  0.885778488019703  0.4676073777171379  0.8303967201833065  1.0000
  O   O634      1.0  0.900314263152682  0.4764864266398605  0.8203374461252395  1.0000
  C   C2232     1.0  0.880315575116235  0.42681441869341824  0.8110946715848728  1.0000
  C   C2233     1.0  0.8519645052470458  0.4272113890506155  0.8039584658001727  1.0000
  C   C2234     1.0  0.8871998445611112  0.40303237900219346  0.8124010708131932  1.0000
  C   C2235     1.0  0.8422455767886508  0.4147637990892702  0.7807372195167779  1.0000
  N   N631      1.0  0.8670249858384056  0.47817085862235204  0.8386270353217249  1.0000
  C   C2236     1.0  0.8624575349122164  0.5008500305969579  0.8363898266432261  1.0000
  C   C2237     1.0  0.8797364351578822  0.5194435878870063  0.8531770567271431  1.0000
  O   O635      1.0  0.881770453606477  0.5389672094632626  0.8504172883573162  1.0000
  C   C2238     1.0  0.8348532092030279  0.5047648829258445  0.8385780453506628  1.0000
  C   C2239     1.0  0.8144721702311866  0.4870993343676613  0.8234074843117924  1.0000
  C   C2240     1.0  0.8155284246342207  0.485359642207733  0.7992717585685734  1.0000
  O   O636      1.0  0.8224658953527988  0.502702636677863  0.7932296621375916  1.0000
  O   O637      1.0  0.8097671174966219  0.46637188376700883  0.7861914362950155  1.0000
  N   N632      1.0  0.8922432187861209  0.5138719192769579  0.8702582266374321  1.0000
  C   C2241     1.0  0.9050963779938863  0.531135358776515  0.8890377155445376  1.0000
  C   C2242     1.0  0.9293730528080181  0.5425007691871131  0.8843510083129382  1.0000
  O   O638      1.0  0.9361748418550463  0.5626320768383497  0.8933651629883488  1.0000
  C   C2243     1.0  0.911090630735663  0.5206146623242163  0.9085030640465113  1.0000
  C   C2244     1.0  0.9082671584230735  0.536627691178341  0.9300586513137976  1.0000
  C   C2245     1.0  0.8826536991245331  0.5454611149657521  0.9278214426352989  1.0000
  C   C2246     1.0  0.9118734172621352  0.5254003265337424  0.9493933598929392  1.0000
  N   N633      1.0  0.9428671297030942  0.5300021108556275  0.8706501464059282  1.0000
  C   C2247     1.0  0.9665894250767647  0.5401137276438895  0.8659471091839748  1.0000
  C   C2248     1.0  0.9627237114149361  0.5612632142277537  0.8574228542191843  1.0000
  O   O639      1.0  0.9776635928435786  0.5787892372384627  0.8648203398495484  1.0000
  C   C2249     1.0  0.9781029429959245  0.5226366794514639  0.849682438791386  1.0000
  C   C2250     1.0  0.00044265008253213233  0.5316878657415257  0.8397864646368591  1.0000
  C   C2251     1.0  0.024472138739525022  0.537404912252656  0.8517400175759906  1.0000
  C   C2252     1.0  0.9970876904313954  0.5338286726612689  0.8182961973309889  1.0000
  C   C2253     1.0  0.04494333655793463  0.545026817870071  0.8427095329102261  1.0000
  C   C2254     1.0  0.0172303039093209  0.5417226350658824  0.8090370928002681  1.0000
  C   C2255     1.0  0.04104062445720709  0.5469416784361631  0.8211702756332937  1.0000
  O   O640      1.0  0.0608240314133271  0.5546665153290767  0.8120908009964671  1.0000
  N   N634      1.0  0.9427525752146698  0.5599360227062803  0.8418277134311097  1.0000
  C   C2256     1.0  0.936433655936477  0.5796587408797262  0.8333851084180893  1.0000
  C   C2257     1.0  0.9319741378059032  0.5994198946362947  0.8514297477592645  1.0000
  O   O641      1.0  0.9387400928059808  0.6189940563989307  0.8508581980968745  1.0000
  C   C2258     1.0  0.9128456652611124  0.5739998665198757  0.8161079786235523  1.0000
  C   C2259     1.0  0.9178695692705293  0.5616151211117603  0.7938012117999818  1.0000
  O   O642      1.0  0.9390149950109765  0.563149812028202  0.7882653450699741  1.0000
  N   N635      1.0  0.898241210916909  0.5492087645304088  0.7808025394781939  1.0000
  N   N636      1.0  0.9193926703659266  0.5948398834381522  0.8669432385955691  1.0000
  C   C2260     1.0  0.9145327747689782  0.6132453590728145  0.8846939381103723  1.0000
  C   C2261     1.0  0.9391912720350208  0.6248799808846326  0.8986234198823384  1.0000
  O   O643      1.0  0.9432003180949741  0.645855916907547  0.9044858864194261  1.0000
  C   C2262     1.0  0.8967001934972479  0.6045914523769322  0.8989010297183565  1.0000
  C   C2263     1.0  0.8931764460142217  0.624583320067316  0.918072438393958  1.0000
  C   C2264     1.0  0.8711833981067305  0.5945047298570134  0.8855757575894886  1.0000
  N   N637      1.0  0.9558583224237955  0.6114382449514925  0.9046818463036741  1.0000
  C   C2265     1.0  0.9794398851258597  0.621375507051994  0.9184643581624542  1.0000
  C   C2266     1.0  0.995265643022397  0.6352867215280364  0.9070170349242969  1.0000
  O   O644      1.0  0.008205442344077059  0.6528723202920428  0.9176315286543999  1.0000
  C   C2267     1.0  0.9934220325539113  0.6026856606716903  0.9253066241207821  1.0000
  C   C2268     1.0  0.9778788620390648  0.5904377428959744  0.9385502462978801  1.0000
  S   S33       1.0  0.9949596398649483  0.5718467548644263  0.9517448785039159  1.0000
  C   C2269     1.0  0.996509585623764  0.5491729548332023  0.9279357525677769  1.0000
  N   N638      1.0  0.9937255474206318  0.6280756465956007  0.8853471377245326  1.0000
  C   C2270     1.0  0.006499022467061878  0.6412675173912287  0.8725934152580548  1.0000
  C   C2271     1.0  0.9957174686036047  0.6639355935409916  0.8738181645346051  1.0000
  O   O645      1.0  0.00987633873379966  0.681797531374125  0.8777373622195662  1.0000
  C   C2272     1.0  0.004019144766321081  0.6277486913450652  0.8488332792929778  1.0000
  S   S34       1.0  0.02534423560815872  0.6055305904120005  0.8444568418781045  1.0000
  N   N639      1.0  0.9705812944921669  0.6635294401459726  0.8709930762033623  1.0000
  C   C2273     1.0  0.9583265767566705  0.6843904450599382  0.8729526750458428  1.0000
  C   C2274     1.0  0.9655565614425394  0.6998028297359401  0.8959289714739276  1.0000
  O   O646      1.0  0.971248982782834  0.7203616926002459  0.8985254399402143  1.0000
  C   C2275     1.0  0.9295537258333627  0.6785020843070366  0.8669922285666312  1.0000
  C   C2276     1.0  0.9210768896167223  0.6679962569609342  0.8420563332960658  1.0000
  O   O647      1.0  0.9356215652367141  0.6701608541923921  0.8285351012829498  1.0000
  O   O648      1.0  0.8996905685806998  0.6575499291886725  0.83575295701942  1.0000
  N   N640      1.0  0.9661750562395477  0.6900385994197924  0.9128141814999685  1.0000
  C   C2277     1.0  0.9742240443628577  0.703241270914028  0.935169938294601  1.0000
  C   C2278     1.0  0.0011066469489812425  0.7147447413858004  0.9387135462014201  1.0000
  O   O649      1.0  0.007814463006522531  0.7316126570157031  0.9539167672209985  1.0000
  C   C2279     1.0  0.9722643082546084  0.6879676313610293  0.9509936989476316  1.0000
  C   C2280     1.0  0.9452946519152762  0.6793050079268037  0.9525287180409081  1.0000
  C   C2281     1.0  0.9454334487384558  0.6615009424151324  0.9651844605652619  1.0000
  C   C2282     1.0  0.9319613451154674  0.6986257502173525  0.9630452318288872  1.0000
  N   N641      1.0  0.016814894106389536  0.7059899732639371  0.9253882740725522  1.0000
  C   C2283     1.0  0.043091370029710384  0.7152382481859532  0.9283929922976891  1.0000
  C   C2284     1.0  0.04901048402487513  0.7279010789805559  0.9113934723391701  1.0000
  O   O650      1.0  0.07048919973572748  0.7375398675429441  0.9131244513166946  1.0000
  C   C2285     1.0  0.0603810713873815  0.6964016772988215  0.9284256522783971  1.0000
  C   C2286     1.0  0.06241817113528633  0.6884572270005177  0.9495893197771873  1.0000
  C   C2287     1.0  0.07467372144858124  0.6662026792663811  0.9463233217063863  1.0000
  C   C2288     1.0  0.07725489549475874  0.7066084267435929  0.9684341286457088  1.0000
  N   N642      1.0  0.030602624154544286  0.7286549805617889  0.8955043917247234  1.0000
  C   C2289     1.0  0.03566623641103585  0.7384432724291193  0.8775250723449642  1.0000
  C   C2290     1.0  0.0498825874547335  0.7237561599665965  0.8617013116919336  1.0000
  O   O651      1.0  0.06416065276211268  0.7325816092581932  0.8516910276049287  1.0000
  N   N643      1.0  0.046360199128668504  0.7014499776810444  0.8591538331967088  1.0000
  C   C2291     1.0  0.059960769381534315  0.686030041923182  0.8449467415887247  1.0000
  C   C2292     1.0  0.043232146813278596  0.6744976567334409  0.8234891342635624  1.0000
  O   O652      1.0  0.020313715362513023  0.6696161268476133  0.8227706146879862  1.0000
  C   C2293     1.0  0.06903551160685796  0.6677212406107859  0.8560348050390939  1.0000
  C   C2294     1.0  0.08815044641443878  0.6740145985093886  0.876724902817618  1.0000
  C   C2295     1.0  0.09052110512540677  0.6535519865533956  0.8864249170878968  1.0000
  C   C2296     1.0  0.11372851929375008  0.6827338001364476  0.8716462758175225  1.0000
  N   N644      1.0  0.05497413827491339  0.6692833952384993  0.8060160445847773  1.0000
  C   C2297     1.0  0.04152273654983671  0.6552737983047724  0.7853096168158993  1.0000
  C   C2298     1.0  0.04209740929140277  0.6303568405547567  0.7854239267483772  1.0000
  O   O653      1.0  0.06264498354914733  0.6225488802459485  0.7870895857644857  1.0000
  C   C2299     1.0  0.053489251557517  0.6602309387065762  0.7662851780534837  1.0000
  C   C2300     1.0  0.043614205424353174  0.6440192462608082  0.7438641012974352  1.0000
  C   C2301     1.0  0.014574394921501015  0.6404836975704794  0.7387691443069857  1.0000
  C   C2302     1.0  0.002918844372162441  0.661526436896395  0.7340497770946783  1.0000
  N   N645      1.0  0.9759365082648017  0.6619822121740113  0.7380669547217635  1.0000
  N   N646      1.0  0.02048166920874807  0.6174653846746133  0.7839705576068708  1.0000
  C   C2303     1.0  0.020754934620276  0.5934394083789407  0.784427797336783  1.0000
  C   C2304     1.0  0.031902361616564  0.5799753429168035  0.7653870285840134  1.0000
  O   O654      1.0  0.02668411204980454  0.5829205963077415  0.746868819522572  1.0000
  C   C2305     1.0  0.9927632432523023  0.5851242475962865  0.7827294783399665  1.0000
  C   C2306     1.0  0.9798958751337614  0.6061399325141373  0.7890165246262584  1.0000
  C   C2307     1.0  0.9949053353356682  0.6248097759748263  0.7832846980120026  1.0000
  N   N647      1.0  0.0468992409579483  0.5646349905354354  0.7699594258831348  1.0000
  C   C2308     1.0  0.05323583739654353  0.5469934226453957  0.7524373462332876  1.0000
  C   C2309     1.0  0.029313040269275094  0.5315364929039431  0.7407940631108823  1.0000
  O   O655      1.0  0.010765572258228204  0.5301043478465607  0.7502491275258509  1.0000
  C   C2310     1.0  0.07280134872006631  0.5332582424021818  0.7615494808508223  1.0000
  N   N648      1.0  0.028799407169869326  0.5201698835429305  0.7202019452744822  1.0000
  C   C2311     1.0  0.005711142259824323  0.5057698395566957  0.7084443522195988  1.0000
  C   C2312     1.0  0.9978991724684996  0.48842662143620513  0.7209694548211205  1.0000
  O   O656      1.0  0.013466316530741401  0.47755644495993493  0.7289058301331668  1.0000
  C   C2313     1.0  0.013271301925285436  0.49472068846783224  0.6862845553092143  1.0000
  C   C2314     1.0  0.035008388701599814  0.5107949442144007  0.6836064368911575  1.0000
  C   C2315     1.0  0.049163194653899144  0.5195146691372099  0.7065827333192423  1.0000
  N   N649      1.0  0.9738642476181595  0.48680101337289006  0.7240884829787353  1.0000
  C   C2316     1.0  0.9653835115007267  0.47200772453727613  0.7375443950304352  1.0000
  C   C2317     1.0  0.9375314254910513  0.463277422381792  0.7294120598341409  1.0000
  O   O657      1.0  0.926108915145992  0.4677123696194174  0.7129840895380122  1.0000
  C   C2318     1.0  0.9706502944135786  0.48451732163110844  0.7619414006193185  1.0000
  C   C2319     1.0  0.9540416265493351  0.5032989415777855  0.7675099273300341  1.0000
  O   O658      1.0  0.9333864831699571  0.49946595653367926  0.7731274440118117  1.0000
  N   N650      1.0  0.962772838248639  0.5237688999640361  0.7657789483525095  1.0000
  N   N651      1.0  0.9265968039088689  0.4503325476353584  0.7407777331205283  1.0000
  C   C2320     1.0  0.9009931370116058  0.43915729343324617  0.7335925373647662  1.0000
  C   C2321     1.0  0.8812615654295676  0.45166712847261403  0.7450888505739854  1.0000
  O   O659      1.0  0.8589088037592594  0.44402487740466984  0.739944903612474  1.0000
  C   C2322     1.0  0.8997572898563637  0.4148610969579396  0.7362706557828229  1.0000
  C   C2323     1.0  0.9183681454754105  0.402191509801122  0.7245947126797095  1.0000
  O   O660      1.0  0.9352648345193354  0.39390996472873646  0.7342130769982183  1.0000
  N   N652      1.0  0.9159577317338953  0.4010096058905264  0.7034310451809194  1.0000
  N   N653      1.0  0.8888677923409977  0.4705617001533542  0.7603084015839179  1.0000
  C   C2324     1.0  0.8706533172912672  0.48536853989534  0.7682774368766723  1.0000
  C   C2325     1.0  0.8580826094767356  0.4950419339476538  0.750232797535497  1.0000
  O   O661      1.0  0.8665064948138719  0.49347394614951823  0.7328086978277739  1.0000
  N   N654      1.0  0.8371762885465324  0.5045053163427705  0.7541030052493961  1.0000
  C   C2326     1.0  0.824619338751664  0.5167621079193259  0.7393733539500837  1.0000
  C   C2327     1.0  0.8283086890466267  0.5415619648290786  0.7514248868313393  1.0000
  O   O662      1.0  0.8169050553957635  0.5483775634809668  0.766938377667644  1.0000
  C   C2328     1.0  0.7967498440097256  0.5079825550025087  0.7324984280110478  1.0000
  O   O663      1.0  0.7946148912877339  0.48409518124694595  0.7230596935864331  1.0000
  C   C2329     1.0  0.7850309114261111  0.5194778702136307  0.7154989080525289  1.0000
  N   N655      1.0  0.8444396044934316  0.5548176317756507  0.7444193209694714  1.0000
  C   C2330     1.0  0.8527834643954333  0.5780096282237671  0.7566178237639128  1.0000
  C   C2331     1.0  0.8308646012404707  0.5925493691151474  0.7555727043812566  1.0000
  O   O664      1.0  0.8197201395995961  0.5940986483067251  0.7377893448857453  1.0000
  C   C2332     1.0  0.8753304092359713  0.5872347076056933  0.7476199990788562  1.0000
  C   C2333     1.0  0.892179828083653  0.6055337405158071  0.763949989432861  1.0000
  N   N656      1.0  0.9129870877191123  0.6166945445065225  0.7589693423748896  1.0000
  C   C2334     1.0  0.8908999731980055  0.6149743221944379  0.7851953068834212  1.0000
  C   C2335     1.0  0.9239676698171512  0.6320873592684559  0.7765077520150907  1.0000
  N   N657      1.0  0.9109412528957768  0.6313821612660383  0.7925927925137853  1.0000
  N   N658      1.0  0.8240770915920955  0.6025928978789441  0.7746787930954422  1.0000
  C   C2336     1.0  0.8019112966289788  0.6146508212122527  0.7758218924202225  1.0000
  C   C2337     1.0  0.7795287630488327  0.6020929962462482  0.7818639888512042  1.0000
  O   O665      1.0  0.7607420464911353  0.6120827922031901  0.7856688766036873  1.0000
  N   N659      1.0  0.7807725325997558  0.580552220485551  0.7829254382242146  1.0000
  C   C2338     1.0  0.7593212620328622  0.5681026415577274  0.7885429549059922  1.0000
  C   C2339     1.0  0.7581633286481072  0.5744376658418704  0.8129073005141674  1.0000
  O   O666      1.0  0.7384151478179146  0.5696021036222689  0.8196515865303713  1.0000
  C   C2340     1.0  0.7602485102032567  0.5424860195147546  0.7812107892370441  1.0000
  O   O667      1.0  0.7806323232005768  0.5356335790537624  0.7938665317613978  1.0000
  N   N660      1.0  0.778600817187887  0.5854616896048652  0.8262325726430352  1.0000
  C   C2341     1.0  0.7790744705307673  0.5929462392216921  0.8497967487238641  1.0000
  C   C2342     1.0  0.7803502695185385  0.6187049133695428  0.8577004640552024  1.0000
  O   O668      1.0  0.788189415316155  0.6279010588503149  0.876969852672928  1.0000
  C   C2343     1.0  0.8011419350313095  0.5840404071303726  0.8617992916340577  1.0000
  C   C2344     1.0  0.7971142020449999  0.5585565779749989  0.8604928924057372  1.0000
  C   C2345     1.0  0.8172073017961011  0.5515414068348499  0.8764636229719539  1.0000
  C   C2346     1.0  0.770157262903805  0.5518302263320806  0.8645917199845924  1.0000
  N   N661      1.0  0.7728172511861483  0.6306072193964267  0.8432647525822622  1.0000
  C   C2347     1.0  0.7750921411497913  0.6554494326415586  0.8497967487238641  1.0000
  C   C2348     1.0  0.760164137075344  0.663763970062238  0.8683639477563675  1.0000
  O   O669      1.0  0.7678131559374167  0.6815733740389311  0.8822607695476256  1.0000
  C   C2349     1.0  0.7662616315530177  0.6652470170200998  0.8302007602990584  1.0000
  C   C2350     1.0  0.7863094297622851  0.666543438217283  0.8156344089032861  1.0000
  O   O670      1.0  0.8071842718404251  0.6606912054368789  0.8202068062024075  1.0000
  N   N662      1.0  0.7800065394150513  0.6743657441521093  0.797949029349899  1.0000
  N   N663      1.0  0.7393442391294274  0.6508359389088761  0.8693437471776078  1.0000
  C   C2351     1.0  0.7237732267072305  0.6576591076413825  0.8863432671361268  1.0000
  C   C2352     1.0  0.7368198444837335  0.6577419455226343  0.9092379136124414  1.0000
  O   O671      1.0  0.7266303108019059  0.6658017550474227  0.9251923141883042  1.0000
  C   C2353     1.0  0.6987083930480151  0.6423144682745034  0.8807094204639951  1.0000
  C   C2354     1.0  0.7018753508211135  0.6177255174389623  0.8772474625089461  1.0000
  N   N664      1.0  0.7088981280635038  0.6053172909561143  0.8584189836307786  1.0000
  C   C2355     1.0  0.6990480214120238  0.603160059153671  0.8901644848789639  1.0000
  C   C2356     1.0  0.7103890890104623  0.5842068586137652  0.8598886827626391  1.0000
  N   N665      1.0  0.7045049912240293  0.5824191193465005  0.8789621114961166  1.0000
  N   N666      1.0  0.7589387216502633  0.6492621698641519  0.9114424623102321  1.0000
  C   C2357     1.0  0.7730919739832709  0.6509278074690357  0.9330307095582264  1.0000
  C   C2358     1.0  0.7870832096636622  0.6742663809530766  0.9431063136066473  1.0000
  O   O672      1.0  0.792959228210521  0.6803850083390721  0.9631595417613652  1.0000
  C   C2359     1.0  0.792555787144279  0.6338498135940719  0.9320672401273401  1.0000
  C   C2360     1.0  0.7846822486430072  0.6096173466818451  0.9328184196836243  1.0000
  C   C2361     1.0  0.7643161208942955  0.5974659892358523  0.9133694011720047  1.0000
  C   C2362     1.0  0.8083889340845248  0.5975597135867614  0.9328674096546864  1.0000
  N   N667      1.0  0.7927512841078853  0.6872096284471316  0.9296830615356555  1.0000
  C   C2363     1.0  0.8100387682211087  0.7078817475789007  0.9367049573878775  1.0000
  C   C2364     1.0  0.7956516767831834  0.7286307856504496  0.9376847568091178  1.0000
  O   O673      1.0  0.7767064525929388  0.7282948661244425  0.9244901246030819  1.0000
  C   C2365     1.0  0.8297651848608368  0.7079969309285599  0.921289446493697  1.0000
  C   C2366     1.0  0.8445349008799424  0.6871129588284473  0.9175172187219219  1.0000
  C   C2367     1.0  0.8655255654249723  0.6898356012535309  0.904322586515886  1.0000
  C   C2368     1.0  0.8552711521649502  0.6821429668772755  0.9392687658734562  1.0000
  N   N668      1.0  0.8047021169378765  0.7467591466795241  0.9533942075296704  1.0000
  C   C2369     1.0  0.7949505062343899  0.768301259454375  0.9531982476454223  1.0000
  C   C2370     1.0  0.8090705444365219  0.7816094935513196  0.9400526054104484  1.0000
  O   O674      1.0  0.7997862330158619  0.7976931702812453  0.9344350887286709  1.0000
  C   C2371     1.0  0.7960881194504186  0.7824543263901726  0.9765991238227112  1.0000
  C   C2372     1.0  0.8225210389911766  0.7930100611535154  0.9872462775335222  1.0000
  C   C2373     1.0  0.8210436655704191  0.8137257974553602  0.00502963702903347  1.0000
  N   N669      1.0  0.8076098007922421  0.807161890956956  0.021294307421622225  1.0000
  C   C2374     1.0  0.7875153751854782  0.8162745894896765  0.02812024338959622  1.0000
  N   N670      1.0  0.7784117676160063  0.8328341395950476  0.02024918803896592  1.0000
  N   N671      1.0  0.7767351944943628  0.8087036760629447  0.04304585457315658  1.0000
  N   N672      1.0  0.8308625416288473  0.7752716238811982  0.9345330686707949  1.0000
  C   C2375     1.0  0.8444926164522608  0.7873094111191634  0.921436416406883  1.0000
  C   C2376     1.0  0.8633021399977827  0.7723819876782144  0.9113281523777541  1.0000
  O   O675      1.0  0.865899580584097  0.753787421609752  0.9153779899855472  1.0000
  C   C2377     1.0  0.8579032561083811  0.8101807280843055  0.934924988439291  1.0000
  O   O676      1.0  0.8667506329894996  0.8228932616445451  0.9203749670338728  1.0000
  C   C2378     1.0  0.8800725375893788  0.8067748842464797  0.9509283789862156  1.0000
  N   N673      1.0  0.8763575052430418  0.7808196116529209  0.8979049003067622  1.0000
  C   C2379     1.0  0.8958558062700144  0.7692573695546615  0.887045456721349  1.0000
  C   C2380     1.0  0.885161356515586  0.7466761472166217  0.8715482958753985  1.0000
  O   O677      1.0  0.8983423992385904  0.7308932089343375  0.8679883579782255  1.0000
  C   C2381     1.0  0.917671271346298  0.7656567922846139  0.9035224169885399  1.0000
  C   C2382     1.0  0.9335536703580386  0.7875127757031067  0.9157045897926274  1.0000
  O   O678      1.0  0.9307196617002481  0.8054661588668741  0.9103320229661598  1.0000
  N   N674      1.0  0.9508782254321925  0.7859027455101565  0.9319202702141541  1.0000
  N   N675      1.0  0.8612579129685922  0.7449299364555864  0.8622728613543238  1.0000
  C   C2383     1.0  0.8491848377564787  0.7239081612385923  0.8476248600067815  1.0000
  C   C2384     1.0  0.8586860657656752  0.7203980064100174  0.825628362999937  1.0000
  O   O679      1.0  0.8697382189713997  0.7360009613012941  0.8199291963663894  1.0000
  C   C2385     1.0  0.8205320356732685  0.724156751246233  0.8444568418781045  1.0000
  O   O680      1.0  0.8145851166688047  0.7461213471205888  0.8419910133346498  1.0000
  C   C2386     1.0  0.809547965252053  0.7189218205841771  0.8642161302064504  1.0000
  N   N676      1.0  0.8541131903960086  0.6995459371811733  0.8131849103501854  1.0000
  C   C2387     1.0  0.8595363261452296  0.6936770274617862  0.790894473516969  1.0000
  C   C2388     1.0  0.8357134489836745  0.6948856242507749  0.7755116226034964  1.0000
  O   O681      1.0  0.8150357904357667  0.6863187331326943  0.7779611211565971  1.0000
  C   C2389     1.0  0.8681355544222447  0.6699400657233552  0.7858321765072274  1.0000
  C   C2390     1.0  0.8727285195584383  0.6616314378369831  0.7628558800791427  1.0000
  C   C2391     1.0  0.8951251490804893  0.6684599309237642  0.7563892038989568  1.0000
  C   C2392     1.0  0.8548637749822463  0.6466050275751319  0.7477179790209803  1.0000
  C   C2393     1.0  0.8996553631543291  0.660506787773885  0.7353725063133527  1.0000
  C   C2394     1.0  0.8592716609643717  0.6384964002945568  0.72647266157042  1.0000
  C   C2395     1.0  0.881556818580256  0.6455790408007788  0.7202346052551902  1.0000
  N   N677      1.0  0.8380908345647241  0.7052303673532844  0.7596388719794038  1.0000
  C   C2396     1.0  0.8149023807956739  0.7041560671201373  0.7446642708247814  1.0000
  C   C2397     1.0  0.8144883956204609  0.6862580156096817  0.7237945431523632  1.0000
  O   O682      1.0  0.8281954294987057  0.6895815924511133  0.7103712910813713  1.0000
  C   C2398     1.0  0.810150758603106  0.727208390549876  0.7401571934870761  1.0000
  C   C2399     1.0  0.7813384501223557  0.7286183439575723  0.7376260449822053  1.0000
  C   C2400     1.0  0.7748296650795031  0.7526454336170378  0.7445173009115953  1.0000
  N   N678      1.0  0.7903144175684109  0.76278519429039  0.7656646384200315  1.0000
  C   C2401     1.0  0.7900537401250178  0.7556798482458962  0.7841175275200569  1.0000
  N   N679      1.0  0.7740055371181178  0.7384207147306071  0.7857995165265194  1.0000
  N   N680      1.0  0.8062050008450452  0.7668841599332984  0.801476307266364  1.0000
  N   N681      1.0  0.7994126267275908  0.6671677636025877  0.7208878048693504  1.0000
  C   C2402     1.0  0.7982415637941224  0.648940705990836  0.7013408064156067  1.0000
  C   C2403     1.0  0.786436756007655  0.6561454718617783  0.6813692282126589  1.0000
  O   O683      1.0  0.7720857911455027  0.671084505016156  0.6827246174120414  1.0000
  C   C2404     1.0  0.781477978341403  0.6297398907433435  0.7059948536664981  1.0000
  C   C2405     1.0  0.7647105560483166  0.641790167816577  0.7210674347632444  1.0000
  C   C2406     1.0  0.7802842697272874  0.6628607750845327  0.7345886667763604  1.0000
  N   N682      1.0  0.7933489770576216  0.6454551076032722  0.6627040492380314  1.0000
  C   C2407     1.0  0.7834474489280898  0.6490216361575049  0.6414587317874711  1.0000
  C   C2408     1.0  0.7720061186849346  0.6261449235466412  0.6270883402759471  1.0000
  O   O684      1.0  0.7846829284746384  0.6098358619407571  0.6247858116360323  1.0000
  C   C2409     1.0  0.8043320012231547  0.6591683294387533  0.6309422179994921  1.0000
  O   O685      1.0  0.8145051313377911  0.6809423836881839  0.6443164800994221  1.0000
  C   C2410     1.0  0.7942498373677459  0.6614292680531559  0.6078842716196373  1.0000
  N   N683      1.0  0.7482095785862373  0.6249037864136625  0.6179925356487663  1.0000
  C   C2411     1.0  0.735695727426931  0.6041323093397271  0.6034915042144101  1.0000
  C   C2412     1.0  0.7495000261147515  0.5978193672318811  0.5837812058571263  1.0000
  O   O686      1.0  0.7550589677350577  0.6122927664161564  0.5739342216736615  1.0000
  C   C2413     1.0  0.7083604642431249  0.6074688852014303  0.5962736484779401  1.0000
  C   C2414     1.0  0.6924641451389942  0.5867578688906426  0.5821482068217259  1.0000
  S   S35       1.0  0.6600433646400871  0.5933037565479002  0.5779187393200387  1.0000
  C   C2415     1.0  0.6542586439489219  0.6013882270990787  0.6054184430761826  1.0000
  N   N684      1.0  0.7553819174125025  0.5767539319592863  0.5776247994936665  1.0000
  C   C2416     1.0  0.7693336214172226  0.5704333721817152  0.5590086104901011  1.0000
  C   C2417     1.0  0.754007160861501  0.5714196768334243  0.5373060533096288  1.0000
  O   O687      1.0  0.7312200129694091  0.5648728042845201  0.5328642959333394  1.0000
  C   C2418     1.0  0.7748132725045374  0.5461286873220085  0.5592045703743491  1.0000
  C   C2419     1.0  0.7549891407935629  0.5375534077013242  0.5706845535932146  1.0000
  C   C2420     1.0  0.7498140457792324  0.5576679193485962  0.5875044436578394  1.0000
  N   N685      1.0  0.7667473881544268  0.5795788015992824  0.5235562014315568  1.0000
  C   C2421     1.0  0.7540195848939633  0.5803630929763767  0.5020332741449784  1.0000
  C   C2422     1.0  0.7450757913608411  0.5564604981765385  0.48836507221867653  1.0000
  O   O688      1.0  0.7576703017865641  0.5405347845456051  0.4895898214952268  1.0000
  C   C2423     1.0  0.771646927550294  0.5921474417434974  0.48976945138912087  1.0000
  C   C2424     1.0  0.7768060147276815  0.6176384079739425  0.4991102058716116  1.0000
  O   O689      1.0  0.7592486161139735  0.6299650051175458  0.497232256980901  1.0000
  O   O690      1.0  0.7988695712415355  0.6252971362172763  0.5080917005663141  1.0000
  N   N686      1.0  0.7232703643206189  0.5539292157983657  0.47520309999334864  1.0000
  C   C2425     1.0  0.7142006688393352  0.5322631173488908  0.46021216884837224  1.0000
  C   C2426     1.0  0.7304394479692723  0.5279925186356362  0.44203688958436493  1.0000
  O   O691      1.0  0.7360950805624524  0.5431578978552791  0.43305539488966227  1.0000
  C   C2427     1.0  0.686602426572356  0.5320668994316118  0.4508877443562356  1.0000
  C   C2428     1.0  0.6776303509520558  0.5120248626761126  0.431977615526298  1.0000
  C   C2429     1.0  0.6492852909833984  0.5065524474228517  0.42835235766770896  1.0000
  O   O692      1.0  0.6358634083128745  0.5226818824638177  0.43026296653912743  1.0000
  O   O693      1.0  0.6404382026070998  0.48606886195077237  0.4240739001949597  1.0000
  N   N687      1.0  0.7384617142505148  0.5075936648330728  0.43697459257462345  1.0000
  C   C2430     1.0  0.7568647180876652  0.5023547946044308  0.42204898139106306  1.0000
  C   C2431     1.0  0.7442214303734851  0.49008724991837493  0.3990890149533324  1.0000
  O   O694      1.0  0.7524110549095033  0.49415105836968554  0.3830203044449917  1.0000
  C   C2432     1.0  0.7766484557601849  0.48843852230999885  0.43122643597001376  1.0000
  C   C2433     1.0  0.7947011693998601  0.4809629939649151  0.4151087354906111  1.0000
  C   C2434     1.0  0.7911719595700142  0.5022021699704602  0.4529943131119022  1.0000
  N   N688      1.0  0.7243868074574651  0.47503072580371264  0.39719473607226785  1.0000
  C   C2435     1.0  0.7100999230922674  0.46300782667070084  0.37614537850595564  1.0000
  C   C2436     1.0  0.6836614503586986  0.47031841190421686  0.3744633894994932  1.0000
  O   O695      1.0  0.6700092862454772  0.46837465561891334  0.3883438813003972  1.0000
  C   C2437     1.0  0.7088385829729649  0.437316298356766  0.3729447003965707  1.0000
  O   O696      1.0  0.732038590891466  0.429588187960338  0.36765378352187317  1.0000
  N   N689      1.0  0.6765175418265752  0.4783233562596003  0.35751285951203626  1.0000
  C   C2438     1.0  0.6515388799218886  0.4854172876506762  0.3541652114894652  1.0000
  C   C2439     1.0  0.6331642410503169  0.46557290100482396  0.3402847196885612  1.0000
  O   O697      1.0  0.6403769058431081  0.4515935843935691  0.32552240840854096  1.0000
  C   C2440     1.0  0.6523120972503726  0.5048570768624414  0.34293017812591  1.0000
  C   C2441     1.0  0.6324134962836536  0.5190073365942033  0.3492498843929098  1.0000
  C   C2442     1.0  0.6133948256252362  0.5230737857798891  0.3310746051289025  1.0000
  N   N690      1.0  0.5964071250323106  0.5362388638153273  0.34335475787511416  1.0000
  C   C2443     1.0  0.5762009476808074  0.5263098854476226  0.34879264466299764  1.0000
  N   N691      1.0  0.5702963730785181  0.5044053126272859  0.3415094689651116  1.0000
  N   N692      1.0  0.5615147798086704  0.5378305753373133  0.3610727974092093  1.0000
  N   N693      1.0  0.6095005116056922  0.46274479604325597  0.3440569474603363  1.0000
  C   C2444     1.0  0.5927285753729765  0.4431372755146442  0.3306663553700524  1.0000
  C   C2445     1.0  0.5803964256404992  0.44651242031962673  0.308849488257102  1.0000
  O   O698      1.0  0.5770772621074288  0.46545301684729257  0.30586110002231914  1.0000
  C   C2446     1.0  0.572954210363237  0.43974009612247195  0.3452490367561787  1.0000
  C   C2447     1.0  0.572028770257013  0.4623009444196329  0.3594071383931008  1.0000
  C   C2448     1.0  0.5989210681062702  0.47362143864351586  0.3636039459140801  1.0000
  N   N694      1.0  0.5739338278087249  0.4275488519022316  0.29335232741115147  1.0000
  C   C2449     1.0  0.5560598054196457  0.4265671579526186  0.2738543189284698  1.0000
  C   C2450     1.0  0.529295671054071  0.4222888510950071  0.27860634612148516  1.0000
  O   O699      1.0  0.52476019079623  0.41218018427810227  0.2926501378259292  1.0000
  C   C2451     1.0  0.5602515423505059  0.40764372384659925  0.2548135501757002  1.0000
  C   C2452     1.0  0.5871434600067763  0.40788524336703275  0.2512862722592353  1.0000
  O   O700      1.0  0.5975789051869269  0.42374318309849324  0.2455544456449794  1.0000
  N   N695      1.0  0.5987586859170299  0.39016107535684863  0.25440530041685006  1.0000
  N   N696      1.0  0.51141538090574  0.429817874485838  0.26648949327881366  1.0000
  C   C2453     1.0  0.48450096181867586  0.42476792803690705  0.26701205297014174  1.0000
  C   C2454     1.0  0.47164756187476586  0.4123481204309802  0.244101076503473  1.0000
  O   O701      1.0  0.46062996620542973  0.42283361191814617  0.23177193378619954  1.0000
  C   C2455     1.0  0.47244687347371384  0.44628282463761465  0.2753076880699762  1.0000
  C   C2456     1.0  0.48420646035182946  0.45954637560536926  0.2979083947199188  1.0000
  C   C2457     1.0  0.5058475054747114  0.47443875114368184  0.3009947628968257  1.0000
  C   C2458     1.0  0.47345070292767255  0.45742884040517295  0.3159856940418021  1.0000
  C   C2459     1.0  0.5163933222746688  0.4867353819053776  0.3212929409068537  1.0000
  C   C2460     1.0  0.4838875663990707  0.46968383807526076  0.3364471719553701  1.0000
  C   C2461     1.0  0.5053109848116615  0.4843062503782322  0.3391089603830729  1.0000
  O   O702      1.0  0.5157464117792387  0.49649911244368655  0.3597174082098268  1.0000
  N   N697      1.0  0.4722210521981818  0.3900327408124315  0.23800999010142931  1.0000
  C   C2462     1.0  0.4624223517233069  0.3775787893124754  0.21549093340325676  1.0000
  C   C2463     1.0  0.4337100282812587  0.37434952218641343  0.21103284603661343  1.0000
  O   O703      1.0  0.42111665446189317  0.36913104970099003  0.2243744481558353  1.0000
  C   C2464     1.0  0.4730506949382156  0.35462409669072814  0.21390692433891834  1.0000
  C   C2465     1.0  0.47446393955007393  0.35139422520144864  0.23657295095027686  1.0000
  C   C2466     1.0  0.48205798660028953  0.37490224772934655  0.25149856213383726  1.0000
  N   N698      1.0  0.42328813514404495  0.3775349913775635  0.19195941730313582  1.0000
  C   C2467     1.0  0.3967558424728692  0.3712388023881574  0.1836964421840095  1.0000
  C   C2468     1.0  0.3928773112317855  0.34725461624658904  0.16983228037345932  1.0000
  O   O704      1.0  0.40870564518486674  0.3338187898477561  0.17148160939921386  1.0000
  N   N699      1.0  0.37160847668919994  0.3419147798221593  0.15562518876547526  1.0000
  C   C2469     1.0  0.36617060616450603  0.3197568304152602  0.14017701789058679  1.0000
  C   C2470     1.0  0.3827920488229922  0.3195053999096513  0.12242631837578344  1.0000
  O   O705      1.0  0.37862096716048144  0.33091957578334674  0.1089377463433755  1.0000
  C   C2471     1.0  0.33821612587704064  0.31490825017662966  0.13046067362995395  1.0000
  C   C2472     1.0  0.3221727374090084  0.3135682641020598  0.14835834305794304  1.0000
  C   C2473     1.0  0.33348791493198593  0.29316914394803895  0.11259566418267264  1.0000
  C   C2474     1.0  0.29575606978910707  0.31944819835484317  0.1428388063182895  1.0000
  N   N700      1.0  0.40198552813899857  0.30696235827879353  0.12257328828896952  1.0000
  C   C2475     1.0  0.41952232880281837  0.3066053557633112  0.10697814750089496  1.0000
  C   C2476     1.0  0.4184332843527133  0.28359295258618045  0.09133401674175845  1.0000
  O   O706      1.0  0.4306539322961753  0.28168553851657024  0.07591850584757787  1.0000
  C   C2477     1.0  0.44682105730276966  0.31271831156053526  0.11853978067153037  1.0000
  C   C2478     1.0  0.4570947757696586  0.33760637829492174  0.12743962541446296  1.0000
  S   S36       1.0  0.4804282535092045  0.33537636236372315  0.1498280421898036  1.0000
  C   C2479     1.0  0.4890951773246611  0.36380796657942793  0.16517823312256807  1.0000
  N   N701      1.0  0.40510711402936384  0.26602644314158874  0.09528587440742753  1.0000
  C   C2480     1.0  0.4063782845379805  0.24273879526036676  0.08343030141042018  1.0000
  C   C2481     1.0  0.38028577171541533  0.22951374176001663  0.07831901442961664  1.0000
  O   O707      1.0  0.3639539892410453  0.2344011050006943  0.09004394750379208  1.0000
  C   C2482     1.0  0.4246439340030347  0.23057414366786683  0.09634732378043787  1.0000
  C   C2483     1.0  0.451421870303484  0.2416093584339191  0.10105036100239129  1.0000
  C   C2484     1.0  0.4675555693622949  0.23718623985650075  0.0855695301467948  1.0000
  C   C2485     1.0  0.4603904472411202  0.2567896112789126  0.12077698935002901  1.0000
  C   C2486     1.0  0.4920106764659439  0.24747909616688432  0.08973367768706597  1.0000
  C   C2487     1.0  0.48481043822783676  0.2672257758252884  0.12512076678419426  1.0000
  C   C2488     1.0  0.5005812831057138  0.26253143788141453  0.10960727594788977  1.0000
  O   O708      1.0  0.5250858336900328  0.2729097348099106  0.11404903332417904  1.0000
  N   N702      1.0  0.37649483810756923  0.21274068773158375  0.06045400498233544  1.0000
  C   C2489     1.0  0.3526887769909879  0.19842360539516493  0.05359540903365345  1.0000
  C   C2490     1.0  0.35419664872686896  0.1777683535588072  0.06311579341003815  1.0000
  O   O709      1.0  0.37375656837883675  0.16836763965566676  0.06406293285057052  1.0000
  C   C2491     1.0  0.34663079987931944  0.19100922776306806  0.028659513763088174  1.0000
  C   C2492     1.0  0.3548392579251126  0.20751652954664168  0.015285251663158195  1.0000
  C   C2493     1.0  0.35024474213066403  0.19606703941885226  0.9910515459778151  1.0000
  C   C2494     1.0  0.34130181799610815  0.22883833426268094  0.01969434905873957  1.0000
  N   N703      1.0  0.33332692011451637  0.17071629790845727  0.07007236930084426  1.0000
  C   C2495     1.0  0.3317874362145634  0.1501277874908187  0.07800874461289053  1.0000
  C   C2496     1.0  0.3388414879821865  0.12984289420073256  0.06176040421065587  1.0000
  O   O710      1.0  0.34609901628451845  0.11341950096110694  0.06819442041013368  1.0000
  C   C2497     1.0  0.3050800529565463  0.14542901020252  0.08312003159369408  1.0000
  C   C2498     1.0  0.294972995060485  0.1661163027894572  0.09695153342353613  1.0000
  C   C2499     1.0  0.28219798884440195  0.1813080940564327  0.08357727132360615  1.0000
  O   O711      1.0  0.29064829674323567  0.1853719025077435  0.06750856081526546  1.0000
  N   N704      1.0  0.26172199912740224  0.18976324668603983  0.09033788733016412  1.0000
  N   N705      1.0  0.33703485737769945  0.1308593649979422  0.040907006528591694  1.0000
  C   C2500     1.0  0.3431295961182488  0.11320583056838426  0.02327061694626653  1.0000
  C   C2501     1.0  0.37135091984262936  0.11251686238865602  0.022748057254938336  1.0000
  O   O712      1.0  0.3787085212116571  0.09566094659220362  0.011496693901029031  1.0000
  C   C2502     1.0  0.33014748043669606  0.11645327359808914  0.0015353997850862111  1.0000
  O   O713      1.0  0.34488256030511033  0.10983107136426906  0.9846828497397533  1.0000
  N   N706      1.0  0.3872610629921531  0.13026011971825494  0.034195380493095784  1.0000
  C   C2503     1.0  0.4144240000481825  0.13120700371076702  0.033770800743891716  1.0000
  C   C2504     1.0  0.4282876309425917  0.11892719735895764  0.049267961589842146  1.0000
  O   O714      1.0  0.4514749539009596  0.11901376563603791  0.05047638087603845  1.0000
  C   C2505     1.0  0.4263757752642652  0.15582067745698014  0.03978023719416535  1.0000
  C   C2506     1.0  0.4213988285667949  0.16877263698579592  0.022356137486442273  1.0000
  C   C2507     1.0  0.4228714278762432  0.19399924498180723  0.03208881173742917  1.0000
  O   O715      1.0  0.4086562320485879  0.20076346602657297  0.045675363711961126  1.0000
  O   O716      1.0  0.4382765589707637  0.20703310508933556  0.026307995152111463  1.0000
  N   N707      1.0  0.41513100051111407  0.10879598206627746  0.0613684844421597  1.0000
  C   C2508     1.0  0.42726215980181226  0.102407595912116  0.08058888308882328  1.0000
  C   C2509     1.0  0.4288917105833302  0.07692737338400683  0.07559190604049792  1.0000
  O   O717      1.0  0.40957286840880647  0.06355591890898579  0.06870065011110782  1.0000
  C   C2510     1.0  0.4129854048093744  0.11013617731160501  0.09984194171619498  1.0000
  C   C2511     1.0  0.41922977425057406  0.1349428144703399  0.11106064508939617  1.0000
  C   C2512     1.0  0.4051267938024148  0.15106210058059505  0.10459396890921036  1.0000
  C   C2513     1.0  0.43930420307774565  0.1420788356609097  0.12792952512508315  1.0000
  C   C2514     1.0  0.41077485484209675  0.1738657245293037  0.11483287286117139  1.0000
  C   C2515     1.0  0.44508827439459664  0.16481605601823118  0.1383643889612921  1.0000
  C   C2516     1.0  0.43079841742251357  0.18077964864260465  0.13173441287756626  1.0000
  N   N708      1.0  0.4520819238358633  0.07047433465940105  0.07907019398590076  1.0000
  C   C2517     1.0  0.4572821202050641  0.04698937919944662  0.07746985493120839  1.0000
  C   C2518     1.0  0.45227062326058065  0.040110978695425306  0.09822527267114844  1.0000
  O   O718      1.0  0.43147544234429  0.030812149291854756  0.09945002194769881  1.0000
  C   C2519     1.0  0.4847432054297184  0.04396178752066739  0.07422018685076148  1.0000
  C   C2520     1.0  0.4943428268702884  0.05772882304604264  0.05901696583118299  1.0000
  O   O719      1.0  0.48780643825115166  0.05082536669202753  0.03884942774398714  1.0000
  O   O720      1.0  0.508371663304745  0.07571213440977498  0.0673942508827875  1.0000
  N   N709      1.0  0.47158405621301247  0.04423986313113413  0.11444095309267521  1.0000
  C   C2521     1.0  0.4693637023180045  0.04395771440949649  0.13705798973297179  1.0000
  C   C2522     1.0  0.45913749280651994  0.02106184100334328  0.14020967787129468  1.0000
  O   O721      1.0  0.4677521030521775  0.014715763595454144  0.15649067825423746  1.0000
  C   C2523     1.0  0.45313442632705625  0.06231931592979011  0.14669268404183466  1.0000
  C   C2524     1.0  0.4608655814216973  0.08696974101047526  0.1463660842347545  1.0000
  C   C2525     1.0  0.45205525098905597  0.10324654762258384  0.16514557314185996  1.0000
  C   C2526     1.0  0.48924075516833276  0.09201186043449534  0.14700295385856077  1.0000
  N   N710      1.0  0.440746427524479  0.008702770103614145  0.1252840666877344  1.0000
  C   C2527     1.0  0.43084802122693977  0.9864649897830922  0.1270477056459669  1.0000
  C   C2528     1.0  0.41457267070261705  0.9864616448037029  0.14476574518006202  1.0000
  O   O722      1.0  0.4121216933919759  0.9695904983713826  0.15237552068502824  1.0000
  N   N711      1.0  0.40383054443102817  0.005073801411348018  0.1519019509647621  1.0000
  C   C2529     1.0  0.3868547885144854  0.006999205731755044  0.16811763138628888  1.0000
  C   C2530     1.0  0.3595585098644086  0.0017445529811448723  0.15683360805167157  1.0000
  O   O723      1.0  0.35350139256164825  0.003449654130750684  0.13789081924102609  1.0000
  C   C2531     1.0  0.3906015675776552  0.030918115940904174  0.18310856253126528  1.0000
  S   S37       1.0  0.4231282762012857  0.040784625580225636  0.195878614988097  1.0000
  N   N712      1.0  0.342917262379936  0.9954658926466392  0.16875450101009504  1.0000
  C   C2532     1.0  0.3159304486429062  0.9917753261250929  0.16072014575592464  1.0000
  C   C2533     1.0  0.3017144013366134  0.003895599121802996  0.1783238753575419  1.0000
  O   O724      1.0  0.3111073704834383  0.008803322108184762  0.19780555384986953  1.0000
  C   C2534     1.0  0.3062270918587099  0.9666040258956257  0.15425346957573893  1.0000
  O   O725      1.0  0.31389702884122406  0.9568285379885563  0.17208581904231202  1.0000
  C   C2535     1.0  0.31700046854479746  0.9544874404092192  0.134216571411375  1.0000
  N   N713      1.0  0.2785686965244232  0.008357429409821872  0.1714652794088598  1.0000
  C   C2536     1.0  0.26314275680187826  0.01896219128413693  0.18733803003295246  1.0000
  C   C2537     1.0  0.23541247236736684  0.015219828445096728  0.17750737583984166  1.0000
  O   O726      1.0  0.2284910150525491  0.021300210604398333  0.16075280573663275  1.0000
  C   C2538     1.0  0.2713092865837814  0.04423077019908831  0.19551935520030883  1.0000
  S   S38       1.0  0.2526041910075265  0.05719942566564417  0.21521332356723866  1.0000
  N   N714      1.0  0.21957327605489052  0.005997004381106362  0.1883668194252548  1.0000
  C   C2539     1.0  0.19226469367971166  0.0047421782780165895  0.18225940303285704  1.0000
  C   C2540     1.0  0.1816121633632578  0.026936669664202127  0.19143685761180762  1.0000
  O   O727      1.0  0.18078442480821566  0.04194543709418118  0.18129593360197072  1.0000
  C   C2541     1.0  0.17883306785478137  0.985844166439673  0.1899181685088852  1.0000
  C   C2542     1.0  0.15069656365730244  0.9833636668969976  0.1827166427627691  1.0000
  O   O728      1.0  0.14298209088617952  0.9869617794939239  0.1644433835566378  1.0000
  O   O729      1.0  0.1364454358681202  0.9785705608945721  0.19545403523889282  1.0000
  N   N715      1.0  0.32106974336972716  0.4546324146645128  0.3175697031061405  1.0000
  C   C2543     1.0  0.3128868182182556  0.4415085747126505  0.3321850444729748  1.0000
  C   C2544     1.0  0.3211413717943711  0.4544943354201532  0.3555206006888476  1.0000
  O   O730      1.0  0.3402638055185603  0.45078811955236747  0.36647802421638487  1.0000
  N   N716      1.0  0.3064613471560239  0.469942905249352  0.36335899605877  1.0000
  C   C2545     1.0  0.31360567647182  0.48506411522839077  0.38483293337428626  1.0000
  C   C2546     1.0  0.2945788247814076  0.48390464072858885  0.40028110424917474  1.0000
  O   O731      1.0  0.3003141525036026  0.4942597658193347  0.4196484728090244  1.0000
  C   C2547     1.0  0.3181307702699927  0.5093543688754579  0.38272636461861964  1.0000
  O   O732      1.0  0.3405054003285931  0.5123724063951512  0.373565240030023  1.0000
  N   N717      1.0  0.27217411705639794  0.4720205438992802  0.3923610589274824  1.0000
  C   C2548     1.0  0.2590974357638125  0.46107282041767267  0.40653549055475857  1.0000
  C   C2549     1.0  0.27604939388194716  0.44543378984658805  0.41579459508547933  1.0000
  O   O733      1.0  0.27611564220559914  0.4435642498824075  0.4347373838961248  1.0000
  C   C2550     1.0  0.23421744707567704  0.44790088125021277  0.39383075805934287  1.0000
  O   O734      1.0  0.22437611848878913  0.4328450374937971  0.4058333009695364  1.0000
  C   C2551     1.0  0.23816153267300078  0.43425870229856467  0.37136069133223226  1.0000
  N   N718      1.0  0.29123645441150425  0.4347828699496185  0.4027795927733374  1.0000
  C   C2552     1.0  0.3084522850532374  0.4196199221091649  0.40971983867378947  1.0000
  C   C2553     1.0  0.32740752037634213  0.43156821950461444  0.42967508688638334  1.0000
  O   O735      1.0  0.3366253808265779  0.4204330900222853  0.44203688958436493  1.0000
  C   C2554     1.0  0.32123581657140277  0.4087509780616695  0.39033614012358575  1.0000
  C   C2555     1.0  0.301686119373054  0.39387792508472513  0.3722425108113485  1.0000
  C   C2556     1.0  0.3076113629334757  0.3918421145864157  0.3494295142868039  1.0000
  C   C2557     1.0  0.28675034670140354  0.37638247752272375  0.3322177044536828  1.0000
  N   N719      1.0  0.28507312692674125  0.38056588478135117  0.3096169978037402  1.0000
  N   N720      1.0  0.3325114818957703  0.4539887524226652  0.4337412544845305  1.0000
  C   C2558     1.0  0.34624602077529776  0.467183644481097  0.45467630211836463  1.0000
  C   C2559     1.0  0.3303382324448255  0.4691055706463861  0.47325983114122205  1.0000
  O   O736      1.0  0.33230646359264615  0.4867157638489182  0.4877445325852243  1.0000
  C   C2560     1.0  0.3554943374450843  0.49074589000209584  0.4526840432951761  1.0000
  C   C2561     1.0  0.36371757163263596  0.4912153638414159  0.4306222263269156  1.0000
  C   C2562     1.0  0.3878576394293052  0.4804766385350089  0.42704595843938853  1.0000
  O   O737      1.0  0.4046661332807673  0.4821028317783564  0.4429840290248972  1.0000
  O   O738      1.0  0.3903522401427967  0.47084357874209215  0.40813582960945105  1.0000
  N   N721      1.0  0.3136975430668434  0.45148024198620046  0.4724759916042298  1.0000
  C   C2563     1.0  0.30728225378944063  0.44515658458194035  0.49202299005797356  1.0000
  C   C2564     1.0  0.3240439388058246  0.42780505413830305  0.4981630664310793  1.0000
  O   O739      1.0  0.32279992928627566  0.42188764530727624  0.5153748762642003  1.0000
  C   C2565     1.0  0.27960883383505886  0.43537118568969563  0.4885773620932785  1.0000
  C   C2566     1.0  0.2736845695297788  0.41283578354697803  0.4716105021154676  1.0000
  C   C2567     1.0  0.24505299750978982  0.40549287202823986  0.4654214357712998  1.0000
  N   N722      1.0  0.2377649828997479  0.39831305760634067  0.4416939597869308  1.0000
  C   C2568     1.0  0.2215788279081441  0.38039774379244184  0.43134074590249183  1.0000
  N   N723      1.0  0.21062331561408743  0.36736721907271  0.442494129314277  1.0000
  N   N724      1.0  0.21648887026973562  0.3754888122640529  0.4096708487027275  1.0000
  N   N725      1.0  0.3397931818950213  0.4198079606945981  0.48444587453371535  1.0000
  C   C2569     1.0  0.35596509370202567  0.40234668543254787  0.48763022265274625  1.0000
  C   C2570     1.0  0.3837681529137462  0.4111654876508909  0.49380295900656  1.0000
  O   O740      1.0  0.3987130028201218  0.39938809519400587  0.5013310845597563  1.0000
  C   C2571     1.0  0.3519352579473486  0.382894373091582  0.46685847492245214  1.0000
  C   C2572     1.0  0.3256631270322766  0.3710666308047459  0.46187782786448073  1.0000
  N   N726      1.0  0.3149488618399313  0.36140776314328604  0.4766727991252091  1.0000
  C   C2573     1.0  0.30767204871636966  0.3679251357941892  0.44414345834003155  1.0000
  C   C2574     1.0  0.29159610665437463  0.3526866250268663  0.4682465241025425  1.0000
  N   N727      1.0  0.28664454036617504  0.3564783433970466  0.44856888572596687  1.0000
  N   N728      1.0  0.3909724195928801  0.4315928946417512  0.4912391505209813  1.0000
  C   C2575     1.0  0.41696629424056564  0.44237831085815554  0.496921987164175  1.0000
  C   C2576     1.0  0.41752422886748797  0.4638579549046231  0.5149339665246422  1.0000
  O   O741      1.0  0.4167348719877393  0.48246189436733566  0.5105248691290609  1.0000
  C   C2577     1.0  0.4260883543794074  0.4475387206656885  0.4773259987393693  1.0000
  C   C2578     1.0  0.45447906699771856  0.45276033818248  0.4796775173503459  1.0000
  C   C2579     1.0  0.4665228993592083  0.4308418670368465  0.47544804984865874  1.0000
  C   C2580     1.0  0.4609452773456142  0.4673256347016929  0.4642456764658114  1.0000
  N   N729      1.0  0.4197961984074312  0.46135873227578694  0.5353791144478561  1.0000
  C   C2581     1.0  0.415641631839187  0.48001919275063304  0.5530971539819514  1.0000
  C   C2582     1.0  0.4383856766533414  0.49770224626137716  0.5615234290046178  1.0000
  O   O742      1.0  0.4351186881658561  0.5172082677068582  0.5706682236028605  1.0000
  C   C2583     1.0  0.4082027154416976  0.4708280669063077  0.5720236128022429  1.0000
  C   C2584     1.0  0.38317515410377767  0.4556781609716507  0.5659161964098451  1.0000
  C   C2585     1.0  0.37564436901364107  0.4471967151752647  0.5853162249504028  1.0000
  C   C2586     1.0  0.36266094216921363  0.4679878289355607  0.5564937919755844  1.0000
  N   N730      1.0  0.46143689468764715  0.49147629584456537  0.5595638301621373  1.0000
  C   C2587     1.0  0.48425399547978365  0.5066456908102512  0.5698517240851603  1.0000
  C   C2588     1.0  0.5005454360675974  0.5109592978112101  0.5528032141555792  1.0000
  O   O743      1.0  0.5238724378455268  0.5141849250160755  0.5571143316090366  1.0000
  C   C2589     1.0  0.4989286168533641  0.49717899672967764  0.5875371036385475  1.0000
  C   C2590     1.0  0.4811495138290939  0.4843141669556349  0.5982985672818366  1.0000
  C   C2591     1.0  0.46724148861318315  0.49571844595490183  0.6135507782724771  1.0000
  C   C2592     1.0  0.4775428625653575  0.46073135233374624  0.5925994006482889  1.0000
  C   C2593     1.0  0.4504578527642875  0.4838651480402332  0.6229568527163838  1.0000
  C   C2594     1.0  0.4606767473718578  0.4488131163139905  0.6017441952465316  1.0000
  C   C2595     1.0  0.4474816539252081  0.46034082910178137  0.6169637462564641  1.0000
  O   O744      1.0  0.43063729382322213  0.4480909129524225  0.6257002910958567  1.0000
  N   N731      1.0  0.488494969563119  0.5113010222861454  0.5334031856150216  1.0000
  C   C2596     1.0  0.5021123547520217  0.5137173498530299  0.5157341360519885  1.0000
  C   C2597     1.0  0.5126028890760101  0.4919035800025949  0.5057728419360455  1.0000
  O   O745      1.0  0.5143434881373026  0.4762809933129676  0.5150319464667663  1.0000
  N   N732      1.0  0.5199133777051472  0.4908471558432732  0.4865034533183199  1.0000
  C   C2598     1.0  0.5307104440157536  0.4707518762827374  0.47650949922166896  1.0000
  C   C2599     1.0  0.5572795958742969  0.47047950066696415  0.4883814022090305  1.0000
  O   O746      1.0  0.571200798319442  0.4882460297161099  0.49641575746320077  1.0000
  C   C2600     1.0  0.531390822436576  0.46919306681884126  0.45237377347845  1.0000
  C   C2601     1.0  0.5484946354144964  0.4870177014314025  0.4474094564108325  1.0000
  C   C2602     1.0  0.5458511552305343  0.4837914081634654  0.42278383095699323  1.0000
  N   N733      1.0  0.5554445066560634  0.5044736382284308  0.4176725439761899  1.0000
  C   C2603     1.0  0.579367309297903  0.5090092661272013  0.4160068849600813  1.0000
  N   N734      1.0  0.5950652017205287  0.49386398500538736  0.4187176633588462  1.0000
  N   N735      1.0  0.5874146881917129  0.5282752288349667  0.4115487975934381  1.0000
  N   N736      1.0  0.5643477993881443  0.4505517716584389  0.490243021109387  1.0000
  C   C2604     1.0  0.5906510131516669  0.44846710522240035  0.4980650864889553  1.0000
  C   C2605     1.0  0.6080438260667836  0.4564066451732182  0.4835640550545991  1.0000
  O   O747      1.0  0.6027472352809934  0.4508921734143955  0.46355981687094316  1.0000
  C   C2606     1.0  0.5906996487901048  0.4230701821714393  0.4965790573667409  1.0000
  C   C2607     1.0  0.5634507373236484  0.41501744783744043  0.4976568367301052  1.0000
  C   C2608     1.0  0.5478422640071096  0.429097578469997  0.4860952035594698  1.0000
  N   N737      1.0  0.6292052082830504  0.46908958347281454  0.49363965910302  1.0000
  C   C2609     1.0  0.6481843002658141  0.4748575651783563  0.4807226367330022  1.0000
  C   C2610     1.0  0.6652457401847922  0.4560689556275113  0.4760522594917569  1.0000
  O   O748      1.0  0.6732112843578001  0.4464119721627228  0.49025935109974106  1.0000
  C   C2611     1.0  0.664315871865172  0.4970530557513634  0.4921536299808056  1.0000
  N   N738      1.0  0.6715632318183737  0.4515323714274441  0.4562113212116411  1.0000
  C   C2612     1.0  0.6883768540147703  0.43465493963596996  0.449107775407649  1.0000
  C   C2613     1.0  0.7146649188423392  0.44718303616560245  0.452341113497742  1.0000
  O   O749      1.0  0.719144458694215  0.4613544217723645  0.4418082697194088  1.0000
  C   C2614     1.0  0.6795753132682352  0.42183935121609584  0.4252659894908021  1.0000
  C   C2615     1.0  0.6982663747558442  0.4050306259230515  0.41724796422698573  1.0000
  C   C2616     1.0  0.6527816470116998  0.41023771704898915  0.42284915091840924  1.0000
  N   N739      1.0  0.732214956597326  0.4422234786797842  0.46698911484528427  1.0000
  C   C2617     1.0  0.7569330080459916  0.4553647188144005  0.47388037077467415  1.0000
  C   C2618     1.0  0.7776479688718675  0.44374586522937576  0.462726987362889  1.0000
  O   O750      1.0  0.8000384179318705  0.4490554213313334  0.4709899624820153  1.0000
  C   C2619     1.0  0.7638639426463815  0.4604854890159581  0.4987182861031155  1.0000
  C   C2620     1.0  0.7439900201791314  0.4717206900926324  0.5115699885117173  1.0000
  C   C2621     1.0  0.7529713439201093  0.4754900501590375  0.5360649740427244  1.0000
  C   C2622     1.0  0.7382446118822072  0.49405835653908137  0.5055768820517974  1.0000
  N   N740      1.0  0.7706020779938032  0.4284268623733687  0.4439638284461376  1.0000
  C   C2623     1.0  0.7884499790441075  0.4186457124691203  0.4302139765680655  1.0000
  C   C2624     1.0  0.77742949051586  0.41698292495379713  0.4064538406029885  1.0000
  O   O751      1.0  0.7549645589387406  0.4193554164038273  0.40117925371864493  1.0000
  C   C2625     1.0  0.7945112754447465  0.3956401275384863  0.43424748418550463  1.0000
  C   C2626     1.0  0.7725433082787663  0.37696156733945424  0.42730723828505257  1.0000
  C   C2627     1.0  0.7547043003847371  0.37478458485810673  0.4408448002885226  1.0000
  C   C2628     1.0  0.7701446555871675  0.36107912364410005  0.40733566008210476  1.0000
  C   C2629     1.0  0.73496010183149  0.35766568113530617  0.43468839392506275  1.0000
  C   C2630     1.0  0.7505539751047687  0.34391109763211286  0.40111393375722904  1.0000
  C   C2631     1.0  0.7329737330637589  0.342214418279043  0.414863785635301  1.0000
  O   O752      1.0  0.7133902307350438  0.325013295148955  0.4087073792718411  1.0000
  N   N741      1.0  0.7935312220077351  0.41307839291329285  0.39206711910111025  1.0000
  C   C2632     1.0  0.7864672997747078  0.41344765709452874  0.3692051326055037  1.0000
  C   C2633     1.0  0.7727315592258717  0.39073889474728984  0.35630444022583985  1.0000
  O   O753      1.0  0.7827228656575167  0.3730830621142714  0.35605949037052986  1.0000
  C   C2634     1.0  0.8098926790519483  0.4194686918544757  0.35942346838345485  1.0000
  C   C2635     1.0  0.8171817668989907  0.44485263488392224  0.36495933511346246  1.0000
  C   C2636     1.0  0.8429102447178359  0.45194452031224797  0.3596847482291189  1.0000
  N   N742      1.0  0.854448367183017  0.47266653726966446  0.3755085088821495  1.0000
  C   C2637     1.0  0.8454063030748072  0.4926681923610876  0.3775170976956921  1.0000
  N   N743      1.0  0.8246244691650952  0.4948428719353923  0.3646980552677983  1.0000
  N   N744      1.0  0.8570640029126846  0.510552198075343  0.3925080288406685  1.0000
  N   N745      1.0  0.7499511470116454  0.39124562421807507  0.34570627648609076  1.0000
  C   C2638     1.0  0.733727931676471  0.37065267934402185  0.3345039031032435  1.0000
  C   C2639     1.0  0.7113474326647496  0.3771014310831168  0.32081937118658754  1.0000
  O   O754      1.0  0.7069000985288094  0.39704885847785676  0.3230729098554401  1.0000
  C   C2640     1.0  0.7248898514789279  0.35785248314166623  0.3507522435054782  1.0000
  O   O755      1.0  0.7175369900363726  0.33451194457791467  0.3400071098525431  1.0000
  C   C2641     1.0  0.7029584789991352  0.3683650384440616  0.3607625275924832  1.0000
  N   N746      1.0  0.6973002778030752  0.35986881908854956  0.3065306296268333  1.0000
  C   C2642     1.0  0.67446688302894  0.362585019091983  0.2927807777487613  1.0000
  C   C2643     1.0  0.6520077303477314  0.35073988602955736  0.2996393736974433  1.0000
  O   O756      1.0  0.6517288672481583  0.33061412149494596  0.3004395432247896  1.0000
  C   C2644     1.0  0.6761556447928909  0.3529236440563049  0.26859606203448017  1.0000
  O   O757      1.0  0.651932288818754  0.3460213010660827  0.2557770196065865  1.0000
  N   N747      1.0  0.6333183267920877  0.363146594733416  0.3048323106300168  1.0000
  C   C2645     1.0  0.6114248509587601  0.35328158857790903  0.312115486327903  1.0000
  C   C2646     1.0  0.588713700817928  0.36552103696798194  0.30664493955931127  1.0000
  O   O758      1.0  0.5912815111300931  0.3839703297207415  0.3017459424531099  1.0000
  C   C2647     1.0  0.6167280982524705  0.35401288920624907  0.3366268018492642  1.0000
  C   C2648     1.0  0.6142611166169324  0.37670641621403766  0.3517157129363646  1.0000
  C   C2649     1.0  0.6326845222914164  0.3949307475047926  0.35543895073707765  1.0000
  C   C2650     1.0  0.5933184830144888  0.37966591516476905  0.3621015868015115  1.0000
  C   C2651     1.0  0.6301382619930562  0.41558389619770053  0.36966237233541577  1.0000
  C   C2652     1.0  0.5906596644098068  0.39980587296648457  0.37611271852524775  1.0000
  C   C2653     1.0  0.6087304269106216  0.4177179798647332  0.37977063636454467  1.0000
  O   O759      1.0  0.6047774773740171  0.43755299311633533  0.39401038795323684  1.0000
  N   N748      1.0  0.5662636866667752  0.3548588308897409  0.30741244910594956  1.0000
  C   C2654     1.0  0.5419828799210182  0.3621908512352394  0.30032523329231153  1.0000
  C   C2655     1.0  0.5258601064169617  0.364763671526806  0.3184841825659648  1.0000
  O   O760      1.0  0.5245368784657942  0.35027537483041254  0.32913133627677593  1.0000
  C   C2656     1.0  0.5270184156717941  0.34503817003609166  0.28033732509900966  1.0000
  C   C2657     1.0  0.5419761862397127  0.3390511745847952  0.26154150620155026  1.0000
  O   O761      1.0  0.5546853614060812  0.35466295568780426  0.25693644892172085  1.0000
  O   O762      1.0  0.5406022518610384  0.31878396701210576  0.25131893223994317  1.0000
  N   N749      1.0  0.5133117692357099  0.3829444046462423  0.3217011906657038  1.0000
  C   C2658     1.0  0.49296383967376023  0.3846206051886264  0.3348631628910316  1.0000
  C   C2659     1.0  0.4688562832304598  0.37194658827897664  0.3207213912444634  1.0000
  O   O763      1.0  0.4619568370953516  0.37547850663970156  0.30257877196116423  1.0000
  C   C2660     1.0  0.4893161210338408  0.40946578270029066  0.34431822730600037  1.0000
  C   C2661     1.0  0.5141247209311182  0.4226755056829763  0.356778009946106  1.0000
  C   C2662     1.0  0.4686213890095011  0.41070255666830163  0.35862329885610855  1.0000
  C   C2663     1.0  0.5235141277625952  0.41557731100872913  0.3768475680911779  1.0000
  N   N750      1.0  0.45609828578591693  0.3570143543723384  0.3287884064793418  1.0000
  C   C2664     1.0  0.4325755797031434  0.34400777232323543  0.31707980339552044  1.0000
  C   C2665     1.0  0.4118858747030729  0.3485215653984092  0.33120524505173454  1.0000
  O   O764      1.0  0.41513835114594877  0.34642586972539186  0.3501643638527341  1.0000
  C   C2666     1.0  0.43516162266488057  0.31861290953019933  0.3111030269259547  1.0000
  C   C2667     1.0  0.45645584131399264  0.31081749153377697  0.29859425431478703  1.0000
  C   C2668     1.0  0.4558347385715813  0.2853878091920473  0.29578549597389814  1.0000
  C   C2669     1.0  0.45362994589309247  0.31686123183199566  0.27659775730794256  1.0000
  N   N751      1.0  0.3905866789370004  0.3540525049254569  0.3217011906657038  1.0000
  C   C2670     1.0  0.3693366829478253  0.3598455377774101  0.33303420397138306  1.0000
  C   C2671     1.0  0.34815153909267227  0.3405092223200789  0.326093958070931  1.0000
  O   O765      1.0  0.3434414768121625  0.32927767545977615  0.30697153936639143  1.0000
  C   C2672     1.0  0.3598444386017998  0.38159536400599714  0.3283148367590757  1.0000
  C   C2673     1.0  0.37904993835804535  0.40243024711085523  0.3358592923026259  1.0000
  C   C2674     1.0  0.3824047815340361  0.41530291331697333  0.3572842396470802  1.0000
  C   C2675     1.0  0.39380227491873665  0.4092264139124141  0.3215215607718097  1.0000
  C   C2676     1.0  0.3999061644206887  0.4345568000118314  0.3642898055089482  1.0000
  C   C2677     1.0  0.41129277267621167  0.42836561214744134  0.32839648671084565  1.0000
  C   C2678     1.0  0.41425497782322007  0.44089316619813823  0.34975611409388396  1.0000
  O   O766      1.0  0.4318139928320688  0.45972440802741277  0.35651673010044194  1.0000
  N   N752      1.0  0.33547266673475395  0.33672215735309163  0.3417544188204217  1.0000
  C   C2679     1.0  0.31329083903318544  0.3203115490749697  0.33778623116439843  1.0000
  C   C2680     1.0  0.29543122532185173  0.329828002917452  0.353316051991057  1.0000
  O   O767      1.0  0.3027159527115376  0.34556262774094243  0.3693847624993978  1.0000
  C   C2681     1.0  0.32018700111971443  0.29724249152554877  0.34110121920626146  1.0000
  C   C2682     1.0  0.345237972196789  0.2916396195856637  0.3345692230646595  1.0000
  N   N753      1.0  0.3678898328557305  0.30182002845897726  0.34688203579157917  1.0000
  C   C2683     1.0  0.35112118101647205  0.27734532367055603  0.3167532035884403  1.0000
  C   C2684     1.0  0.38668252851396223  0.29398355784739694  0.33692074167563624  1.0000
  N   N754      1.0  0.3769649481532349  0.27900008439737534  0.3186474824695049  1.0000
  N   N755      1.0  0.2719646191395141  0.31965983652670665  0.34872732470158174  1.0000
  C   C2685     1.0  0.2536101011365043  0.3264127999805507  0.36326101611664596  1.0000
  C   C2686     1.0  0.2635645098572156  0.3261522814309064  0.3868251921974748  1.0000
  O   O768      1.0  0.2610985343541492  0.34205385733120025  0.40211006316882325  1.0000
  C   C2687     1.0  0.22903896685323533  0.31062849139018084  0.3549980409975195  1.0000
  O   O769      1.0  0.22063757855709143  0.31100356992750966  0.3328872340581971  1.0000
  C   C2688     1.0  0.20888916130758117  0.31791443929964647  0.36869890290452956  1.0000
  N   N756      1.0  0.2751523684992966  0.3083822123423607  0.3901565102296918  1.0000
  C   C2689     1.0  0.28088184601183963  0.3044891899490606  0.41194071736193405  1.0000
  C   C2690     1.0  0.30855367300904024  0.3108811921376509  0.4223755811981432  1.0000
  O   O770      1.0  0.314528123606733  0.3101738529942689  0.4416939597869308  1.0000
  C   C2691     1.0  0.273355676341665  0.27941478298863826  0.4111568778249419  1.0000
  C   C2692     1.0  0.2447145811350081  0.27297552841235767  0.4064865005836965  1.0000
  O   O771      1.0  0.23006386171168003  0.28829151470914305  0.40823380955157507  1.0000
  O   O772      1.0  0.23674648633043727  0.2523647883475185  0.4008363239212108  1.0000
  N   N757      1.0  0.32549971363900887  0.3168269162114391  0.4104383582493657  1.0000
  C   C2693     1.0  0.35243454431734134  0.31996889181664934  0.41904426316592625  1.0000
  C   C2694     1.0  0.3675189884793899  0.3307160675099419  0.404592221702632  1.0000
  O   O773      1.0  0.3594382569382427  0.3291297992227847  0.38517586317172037  1.0000
  C   C2695     1.0  0.3627113342584207  0.2976346226422789  0.4214121117672569  1.0000
  C   C2696     1.0  0.3625942530662676  0.2806298554932091  0.40016679431669666  1.0000
  C   C2697     1.0  0.3406333267446635  0.2670736357518415  0.3893563407023456  1.0000
  C   C2698     1.0  0.3846142356596155  0.27794613413391184  0.39095667975703796  1.0000
  C   C2699     1.0  0.34056295125421643  0.25131805641102206  0.36956439239329175  1.0000
  C   C2700     1.0  0.38454560262713133  0.2620628530178148  0.3712463813997542  1.0000
  C   C2701     1.0  0.3627661337687298  0.24898287777315678  0.36063188766965115  1.0000
  N   N758      1.0  0.3898434894410999  0.3413691285478758  0.41437388592468083  1.0000
  C   C2702     1.0  0.40798641374325273  0.35109527051539774  0.4029592226672315  1.0000
  C   C2703     1.0  0.43308614447540106  0.3409273800677024  0.4059802708827225  1.0000
  O   O774      1.0  0.44055465117426695  0.3352121938664761  0.42294713086053326  1.0000
  C   C2704     1.0  0.4117599179787853  0.3771649129246404  0.41132017772848195  1.0000
  C   C2705     1.0  0.4272315673323068  0.3894337519237531  0.39796224561890614  1.0000
  C   C2706     1.0  0.43145772645800107  0.41525911990121583  0.4068620903618386  1.0000
  O   O775      1.0  0.4145209638539824  0.425637450123644  0.4151413954713191  1.0000
  O   O776      1.0  0.4517512805980678  0.4253741196663815  0.40495148149042004  1.0000
  N   N759      1.0  0.4462517955048302  0.338316438133578  0.3894543206444696  1.0000
  C   C2707     1.0  0.4701966099098498  0.3288143393242783  0.3912506195834101  1.0000
  C   C2708     1.0  0.4898399133713812  0.3410347173936937  0.38146895536136116  1.0000
  O   O777      1.0  0.4837597888092804  0.3497746118902063  0.3660861044478887  1.0000
  C   C2709     1.0  0.46680322831288956  0.30332069906552583  0.3801788861233948  1.0000
  O   O778      1.0  0.45585086350240434  0.29990171832811713  0.3579537692515944  1.0000
  N   N760      1.0  0.5136243907834874  0.34115340260081045  0.39061374995960385  1.0000
  C   C2710     1.0  0.53552321631838  0.34698459998084635  0.38106070560251104  1.0000
  C   C2711     1.0  0.5458752825721149  0.3254328045747631  0.3701686020363899  1.0000
  O   O779      1.0  0.558496976209972  0.3146883980879919  0.3811913455253432  1.0000
  N   N761      1.0  0.540744341310549  0.3190560996099051  0.34854769480768755  1.0000
  C   C2712     1.0  0.546095273522055  0.29724685469051665  0.3358919522833339  1.0000
  C   C2713     1.0  0.5714009664592015  0.2996862160314124  0.32771062711597754  1.0000
  O   O780      1.0  0.574584222150159  0.312141333372279  0.31523451448551787  1.0000
  C   C2714     1.0  0.5249447499713873  0.2878533826322547  0.31662256366560826  1.0000
  C   C2715     1.0  0.5304990437821273  0.2658392410547584  0.3024807920190402  1.0000
  C   C2716     1.0  0.5257141670118326  0.24557756230351938  0.30849022846931395  1.0000
  C   C2717     1.0  0.541583801480904  0.26533575668156595  0.2838482730251207  1.0000
  C   C2718     1.0  0.5312902780496105  0.22533006741221973  0.2959651258677922  1.0000
  C   C2719     1.0  0.5474295027554079  0.24500198375141094  0.27130684043324504  1.0000
  C   C2720     1.0  0.5421945185771369  0.22517533511564494  0.2775448967484748  1.0000
  O   O781      1.0  0.547458244569335  0.20482813015967177  0.26534639395403326  1.0000
  N   N762      1.0  0.5890860549405071  0.2874600711950112  0.3341609733058094  1.0000
  C   C2721     1.0  0.6140832954449242  0.28895304813680567  0.32753099722208345  1.0000
  C   C2722     1.0  0.6137355925361483  0.27386870366921046  0.30481598063966286  1.0000
  O   O782      1.0  0.6076443409228208  0.2531615556335623  0.3010274228775338  1.0000
  C   C2723     1.0  0.6337666768574999  0.2819667061280035  0.34348539779794607  1.0000
  O   O783      1.0  0.6572433519853129  0.28137612529397005  0.33535306260165176  1.0000
  N   N763      1.0  0.6209976595561999  0.2840911406421639  0.2899066994464564  1.0000
  C   C2724     1.0  0.6244800618204055  0.27097993347731947  0.2685144120827103  1.0000
  C   C2725     1.0  0.6479244631839269  0.25864856875355174  0.2693145816100565  1.0000
  O   O784      1.0  0.6507289657160193  0.24379785489719707  0.25322954111136176  1.0000
  C   C2726     1.0  0.6257645615994043  0.28637232012171693  0.2528376213428657  1.0000
  C   C2727     1.0  0.6022006473426547  0.2976993995345714  0.24984923310808282  1.0000
  C   C2728     1.0  0.5981008968961585  0.3034138434932691  0.22798337602407037  1.0000
  O   O785      1.0  0.576491584466648  0.29823609538726403  0.21707494246759518  1.0000
  O   O786      1.0  0.6166319405282636  0.31264251520728464  0.2217126597281326  1.0000
  N   N764      1.0  0.6647128264395835  0.26447321894213066  0.2874572008933558  1.0000
  C   C2729     1.0  0.6877814414709418  0.253490542736101  0.28944945971654434  1.0000
  C   C2730     1.0  0.6840321358065401  0.23271717187390153  0.2986269142954949  1.0000
  O   O787      1.0  0.6926352715057247  0.21506980862652597  0.2906088890316786  1.0000
  C   C2731     1.0  0.7093932347444355  0.2707077576251393  0.30341160146921853  1.0000
  C   C2732     1.0  0.712280077491049  0.2913679055138078  0.2936462672375235  1.0000
  C   C2733     1.0  0.7339590305192298  0.2598170929310186  0.3049139605817869  1.0000
  C   C2734     1.0  0.7151225049996153  0.2852535128206337  0.2697065013785527  1.0000
  N   N765      1.0  0.6712143728910767  0.2340119752258708  0.31534882441799583  1.0000
  C   C2735     1.0  0.667187190716112  0.2145005152491434  0.3245752689680087  1.0000
  C   C2736     1.0  0.6415281260791679  0.20095060945727944  0.315642764244368  1.0000
  O   O788      1.0  0.6357001787721039  0.1839884174059394  0.32215843039561587  1.0000
  C   C2737     1.0  0.6704232274960484  0.22198472703863814  0.3495274942289279  1.0000
  C   C2738     1.0  0.695458940442497  0.23512809401904386  0.3596030982773488  1.0000
  C   C2739     1.0  0.7160429500102637  0.22415440579082516  0.36520428496877255  1.0000
  C   C2740     1.0  0.6985478495687316  0.2585243400609537  0.36322835613593796  1.0000
  C   C2741     1.0  0.7391640577464091  0.2362728564751458  0.3743980695380771  1.0000
  C   C2742     1.0  0.7216015677059188  0.2707130436130436  0.3723078307727645  1.0000
  C   C2743     1.0  0.7420083547996867  0.2596242482146226  0.37790901746418826  1.0000
  N   N766      1.0  0.6262758308844287  0.20801540248002603  0.3008641229739937  1.0000
  C   C2744     1.0  0.6023044538974999  0.1955059861510296  0.28923716984194225  1.0000
  C   C2745     1.0  0.5830654950870915  0.1935781265646657  0.30457103078435277  1.0000
  O   O789      1.0  0.5673440979806608  0.17692044135431023  0.30073348305116165  1.0000
  C   C2746     1.0  0.6062599747849711  0.1719186275993372  0.27597721767449035  1.0000
  C   C2747     1.0  0.6264920398223486  0.17264461835300537  0.26110059646199213  1.0000
  C   C2748     1.0  0.6340194851040677  0.14921361464668406  0.25164553204702333  1.0000
  C   C2749     1.0  0.617258508995706  0.1837618527627519  0.24277834728479875  1.0000
  N   N767      1.0  0.5843589136658507  0.21024866802797149  0.322354390279864  1.0000
  C   C2750     1.0  0.5674085337440553  0.2094247229341549  0.33829246086537257  1.0000
  C   C2751     1.0  0.5683206277237792  0.2331891957885366  0.3527281723383128  1.0000
  O   O790      1.0  0.5850311450396457  0.24808090996735985  0.3521729526662767  1.0000
  C   C2752     1.0  0.5745955236341185  0.19219347165608092  0.35179736288813457  1.0000
  C   C2753     1.0  0.6004569362709793  0.19826629314192917  0.36690260396558905  1.0000
  S   S39       1.0  0.60740047502055  0.17560960775881657  0.3800809061812708  1.0000
  C   C2754     1.0  0.61467630263967  0.1546746720583707  0.35757817947345216  1.0000
  N   N768      1.0  0.5502177206473127  0.23761830478330154  0.3650573150555865  1.0000
  C   C2755     1.0  0.5505389599853444  0.26052510265662654  0.37901945680826055  1.0000
  C   C2756     1.0  0.5731016323777107  0.26610673454453987  0.3973090460047459  1.0000
  O   O791      1.0  0.5803779421171844  0.25174969866158114  0.4067641104197146  1.0000
  C   C2757     1.0  0.5255703394311944  0.25958669275333973  0.3883438813003972  1.0000
  C   C2758     1.0  0.5094390210908233  0.23909497101936725  0.373777529904625  1.0000
  C   C2759     1.0  0.5279889577265262  0.2226292643298871  0.36647802421638487  1.0000
  N   N769      1.0  0.5844184012466845  0.28711484938177273  0.40211006316882325  1.0000
  C   C2760     1.0  0.6019017392347368  0.29534578279190393  0.42239191118849717  1.0000
  C   C2761     1.0  0.587639549591076  0.30081707508977934  0.44175927974834683  1.0000
  O   O792      1.0  0.5973798586354184  0.29920461351763966  0.4600162089641242  1.0000
  C   C2762     1.0  0.6184518113192186  0.3164011500168271  0.42142844175761096  1.0000
  C   C2763     1.0  0.6323384859147559  0.31581452793256504  0.40179979335209726  1.0000
  C   C2764     1.0  0.6467967713719357  0.3386322262678238  0.40508212141325217  1.0000
  C   C2765     1.0  0.650322434478227  0.2978177702478395  0.4001831243070507  1.0000
  N   N770      1.0  0.5648712027263917  0.3076248087192422  0.4379217320151557  1.0000
  C   C2766     1.0  0.5483996637786257  0.31374704273250215  0.45428438234986857  1.0000
  C   C2767     1.0  0.5211929052104232  0.31005091879915575  0.4428533891020652  1.0000
  O   O793      1.0  0.5159439618763985  0.3124379176412825  0.4240739001949597  1.0000
  C   C2768     1.0  0.5547317370020033  0.3385273154330116  0.4673157146523643  1.0000
  C   C2769     1.0  0.5541508340909621  0.35653954640272284  0.45384347261031033  1.0000
  C   C2770     1.0  0.574216799485143  0.36622262308626896  0.4468868967195043  1.0000
  C   C2771     1.0  0.532680118348074  0.36758662782649665  0.4471481765651685  1.0000
  N   N771      1.0  0.5665649342429675  0.3822376076129398  0.43576617328842715  1.0000
  C   C2772     1.0  0.541260150768774  0.38345424548560736  0.43583149324984305  1.0000
  C   C2773     1.0  0.5071574202054983  0.3653636443849909  0.449385385243667  1.0000
  C   C2774     1.0  0.5251115479169373  0.39697586462505985  0.42665403867089247  1.0000
  C   C2775     1.0  0.49102282212825776  0.37888869409045417  0.4404202205393184  1.0000
  C   C2776     1.0  0.5000994319003884  0.39446032188333024  0.4291035372239932  1.0000
  N   N772      1.0  0.5040062972780266  0.30421302205317685  0.45449667222447054  1.0000
  C   C2777     1.0  0.476902505743219  0.30198198323281733  0.4477033962372047  1.0000
  C   C2778     1.0  0.4652746312531443  0.3132199725147702  0.46738103461378033  1.0000
  O   O794      1.0  0.4703656653370709  0.30769253014159764  0.4847724743407954  1.0000
  C   C2779     1.0  0.46638959132777924  0.27702031394769  0.4399629808094063  1.0000
  O   O795      1.0  0.47726133561423445  0.267111766801564  0.4210691819698228  1.0000
  C   C2780     1.0  0.4373495811948849  0.2744760848419348  0.43468839392506275  1.0000
  N   N773      1.0  0.4499947369287768  0.3288502434619869  0.46470291619572357  1.0000
  C   C2781     1.0  0.4405116996240175  0.3436043399923467  0.48271489555619085  1.0000
  C   C2782     1.0  0.41186879898713913  0.34020770307911  0.4791712876493718  1.0000
  O   O796      1.0  0.3999270318717071  0.34077461736999276  0.4613389381827986  1.0000
  C   C2783     1.0  0.44934230739753234  0.36842104049517105  0.48438055457229934  1.0000
  O   O797      1.0  0.4412069565354697  0.38271002164759654  0.5025721638266607  1.0000
  N   N774      1.0  0.4007616295076174  0.33707056634551086  0.4959911777139967  1.0000
  C   C2784     1.0  0.3731927556889195  0.3345626079795744  0.49350901918018797  1.0000
  C   C2785     1.0  0.36471380655598395  0.3406288442764511  0.5157994560134045  1.0000
  O   O798      1.0  0.3778916530183202  0.3377814643426221  0.5319988064445773  1.0000
  C   C2786     1.0  0.36191949215228625  0.3105272868800015  0.4814901462796405  1.0000
  C   C2787     1.0  0.37087984682148745  0.29193634643756056  0.4921046400097435  1.0000
  C   C2788     1.0  0.3942151380148795  0.2838139540074174  0.48926322168814673  1.0000
  C   C2789     1.0  0.35585465939449934  0.2822888648391688  0.5046297426112651  1.0000
  C   C2790     1.0  0.4024062720295547  0.2665956827508579  0.4987182861031155  1.0000
  C   C2791     1.0  0.36391794136174394  0.26506975616186645  0.5143460868718981  1.0000
  C   C2792     1.0  0.38702614491085763  0.25733494639949533  0.5111454087625131  1.0000
  O   O799      1.0  0.39461292147658744  0.24025354095727786  0.5202248833993398  1.0000
  N   N775      1.0  0.3421864731443903  0.3484463397455881  0.5162893557240247  1.0000
  C   C2793     1.0  0.33169868926720447  0.355612688847737  0.5365222137726365  1.0000
  C   C2794     1.0  0.3082204831939881  0.3398816277659861  0.5360159840716624  1.0000
  O   O800      1.0  0.2922412833554374  0.3342864353801083  0.5193920538912855  1.0000
  C   C2795     1.0  0.32570986421647574  0.380242644709329  0.5400168317083935  1.0000
  O   O801      1.0  0.34827409015234  0.39420839611903696  0.5397718818530834  1.0000
  C   C2796     1.0  0.31650686166821995  0.38841089533230905  0.5618990187827599  1.0000
  N   N776      1.0  0.3069208508998231  0.332259660264289  0.5540442934224836  1.0000
  C   C2797     1.0  0.28648609739564157  0.31668922201466276  0.5572939615029306  1.0000
  C   C2798     1.0  0.2744799224002692  0.3291339761816223  0.5762694102942841  1.0000
  O   O802      1.0  0.2868285955820057  0.3350684187777213  0.5947876193557255  1.0000
  C   C2799     1.0  0.296263563475485  0.2951271396141295  0.5624379084644421  1.0000
  C   C2800     1.0  0.3093445963986786  0.28232342255555914  0.5438707094319387  1.0000
  C   C2801     1.0  0.2745797428126979  0.280450775557525  0.5676308453970156  1.0000
  C   C2802     1.0  0.29459768156628086  0.2799194042435352  0.5205024932353579  1.0000
  N   N777      1.0  0.25066050809322415  0.33305716942400526  0.572007282811889  1.0000
  C   C2803     1.0  0.23963946773596778  0.34597340050751013  0.5901009121241263  1.0000
  C   C2804     1.0  0.23082523233335572  0.33073746388669795  0.6044223136645883  1.0000
  O   O803      1.0  0.2288297074277279  0.30988090302073956  0.5985108571564387  1.0000
  C   C2805     1.0  0.21793277994346827  0.35810737206592375  0.5816256471303978  1.0000
  O   O804      1.0  0.19440794479038592  0.3456738326043611  0.5809561175258835  1.0000
  N   N778      1.0  0.2261307236003276  0.3418035251564973  0.623871332176208  1.0000
  C   C2806     1.0  0.21760101984509694  0.3302703452471102  0.6398583927327788  1.0000
  C   C2807     1.0  0.19608586681279572  0.3115396984923592  0.6299297585975439  1.0000
  O   O805      1.0  0.19525473327412934  0.2936497879473789  0.6360208449995877  1.0000
  C   C2808     1.0  0.2090941871163874  0.34763797215328024  0.6581969719003261  1.0000
  C   C2809     1.0  0.20246956681389783  0.3386689433862236  0.6770907707399096  1.0000
  C   C2810     1.0  0.1939201592262706  0.35750551897693766  0.6937310309106406  1.0000
  C   C2811     1.0  0.18124831745572567  0.34791572893517203  0.7100610212646452  1.0000
  N   N779      1.0  0.1664736884163467  0.3647674576279101  0.722618783846875  1.0000
  N   N780      1.0  0.17841837537810679  0.31539471342007286  0.6148735074911514  1.0000
  C   C2812     1.0  0.15522505497514483  0.3002034313381007  0.606283932564945  1.0000
  C   C2813     1.0  0.15626056400697697  0.2846326315588028  0.5839934957317283  1.0000
  O   O806      1.0  0.1364911625082894  0.2747909733022996  0.5724481925514471  1.0000
  C   C2814     1.0  0.1323741208854443  0.3138267922098017  0.6051245032498106  1.0000
  C   C2815     1.0  0.13471995105059398  0.3336193921297526  0.5941180897512114  1.0000
  C   C2816     1.0  0.14985244462418446  0.35491539856884147  0.6091416808768958  1.0000
  O   O807      1.0  0.17309371654883388  0.35724310230430295  0.6114278795264564  1.0000
  N   N781      1.0  0.1366310017669944  0.3703844233219586  0.6195765447131047  1.0000
  N   N782      1.0  0.17879489998605336  0.28186923634837885  0.5778370893682686  1.0000
  C   C2817     1.0  0.18095284282157864  0.2677506844278747  0.5564937919755844  1.0000
  C   C2818     1.0  0.17205263282564032  0.24311017992395753  0.55500776285337  1.0000
  O   O808      1.0  0.1754090602681716  0.23479594214866784  0.5709784934195866  1.0000
  C   C2819     1.0  0.20817721095924024  0.2696230791851983  0.5520520345992951  1.0000
  N   N783      1.0  0.1604926642477953  0.23129987600181806  0.5356077343128123  1.0000
  C   C2820     1.0  0.15173408690468426  0.20751219801575382  0.5322600862902414  1.0000
  C   C2821     1.0  0.16928849075880514  0.19296303143743387  0.5195716837851796  1.0000
  O   O809      1.0  0.17932618293812552  0.1991962569930565  0.5051523023025934  1.0000
  C   C2822     1.0  0.12439025623736688  0.20247642113158737  0.5206657931388978  1.0000
  C   C2823     1.0  0.1054714030771452  0.21003157573869063  0.5363099238980344  1.0000
  C   C2824     1.0  0.079187349147685  0.19715021649656886  0.5291410581326264  1.0000
  O   O810      1.0  0.06684918493504344  0.19879347227976626  0.5115373285310092  1.0000
  O   O811      1.0  0.07078230124067975  0.18559265150384194  0.541192591013882  1.0000
  N   N784      1.0  0.17382141710734955  0.1741559034520314  0.5258097401004094  1.0000
  C   C2825     1.0  0.18957109337815303  0.15792744829623107  0.5150319464667663  1.0000
  C   C2826     1.0  0.1722297415882753  0.13962603159603507  0.4981630664310793  1.0000
  O   O812      1.0  0.15369733744276604  0.1300145923835189  0.5032906834022368  1.0000
  C   C2827     1.0  0.20536417401984008  0.14767885622023785  0.5316885366278511  1.0000
  C   C2828     1.0  0.22053185551512733  0.12975065756303875  0.5202248833993398  1.0000
  C   C2829     1.0  0.222922610768563  0.1661114052617222  0.5486880565863701  1.0000
  N   N785      1.0  0.17762047140689952  0.1352301624866922  0.4780281883245915  1.0000
  C   C2830     1.0  0.1648424223837479  0.11611487833194398  0.4611266483081965  1.0000
  C   C2831     1.0  0.1836552585444683  0.09892705875552778  0.45595004136597694  1.0000
  O   O813      1.0  0.20589755722118874  0.1028656205130898  0.46484988610890954  1.0000
  C   C2832     1.0  0.15399070718525343  0.12370295888390469  0.4408448002885226  1.0000
  O   O814      1.0  0.16995435932539282  0.14170751029960882  0.43746449228524364  1.0000
  N   N786      1.0  0.1747470606950976  0.0796763266836304  0.44154698987374474  1.0000
  C   C2833     1.0  0.1911660607736665  0.06205494247804118  0.4356845233366571  1.0000
  C   C2834     1.0  0.2009610007368784  0.06366402107327714  0.414635165770345  1.0000
  O   O815      1.0  0.19588393354776568  0.07868287084610277  0.40519643134573013  1.0000
  C   C2835     1.0  0.17735799874381175  0.03856521943792229  0.4330064049186003  1.0000
  O   O816      1.0  0.15249085384870587  0.03753195752475836  0.421902011477877  1.0000
  N   N787      1.0  0.21531565831247046  0.04770870277453589  0.4071397001978567  1.0000
  C   C2836     1.0  0.22277210213410614  0.04431260834023471  0.3854698029980924  1.0000
  C   C2837     1.0  0.20378470674059979  0.025887210668996925  0.37008695208461995  1.0000
  O   O817      1.0  0.20396610270085036  0.006021198554733688  0.3719322409946225  1.0000
  C   C2838     1.0  0.24987247406918978  0.037943511453509236  0.38584539277623453  1.0000
  C   C2839     1.0  0.2679867427947725  0.058431512383245975  0.3990073650015624  1.0000
  C   C2840     1.0  0.2558559204569337  0.029355756292731426  0.36273845642531777  1.0000
  C   C2841     1.0  0.2957386017868544  0.054963609120243485  0.3997422145674925  1.0000
  N   N788      1.0  0.18693696805799953  0.03159933742547677  0.3553573007853076  1.0000
  C   C2842     1.0  0.1673429005552992  0.014522000206419895  0.3413624990519255  1.0000
  C   C2843     1.0  0.17877724595052713  0.9937402647283844  0.33006214572695425  1.0000
  O   O818      1.0  0.19999674180264193  0.9952988887238624  0.3247548988619027  1.0000
  C   C2844     1.0  0.1554288463871324  0.02681369221470811  0.32472223888119467  1.0000
  C   C2845     1.0  0.16214708842398196  0.051249319059274774  0.33497747282350965  1.0000
  C   C2846     1.0  0.18733348322342103  0.05326853820522295  0.34885796462441365  1.0000
  N   N789      1.0  0.1643531702978538  0.9740889556720255  0.3264858778394272  1.0000
  C   C2847     1.0  0.17380295232311072  0.9529658288428045  0.31652458372348424  1.0000
  C   C2848     1.0  0.18099965671972618  0.9534073109715203  0.2942178168999138  1.0000
  O   O819      1.0  0.20074261520302483  0.9459175321786328  0.28895956000592415  1.0000
  C   C2849     1.0  0.15425261808263857  0.9329137953310802  0.3148425947170217  1.0000
  C   C2850     1.0  0.16561038890448743  0.9107207075469127  0.31420572509321554  1.0000
  C   C2851     1.0  0.17444140544106768  0.901474649945318  0.2925521578838052  1.0000
  O   O820      1.0  0.16072487039077954  0.902606470561848  0.2754709879735162  1.0000
  O   O821      1.0  0.19510414777905183  0.8933430458870032  0.2925848178645133  1.0000
  N   N790      1.0  0.16560038214596162  0.9625798042043168  0.28110483464564784  1.0000
  C   C2852     1.0  0.17040594837718237  0.9638460735511744  0.2592716375423435  1.0000
  C   C2853     1.0  0.19252895785350932  0.9810498041217052  0.2594839274169456  1.0000
  O   O822      1.0  0.19949346206263674  0.9824666948408801  0.2419618477670984  1.0000
  C   C2854     1.0  0.14671430538357033  0.9693556398505216  0.24617498527843173  1.0000
  C   C2855     1.0  0.14335777309168718  0.9940935039229621  0.25063307264507495  1.0000
  N   N791      1.0  0.13266075517020104  0.005025968178351745  0.26815515229492204  1.0000
  C   C2856     1.0  0.1491512583080994  0.009992753213873549  0.2397083090982458  1.0000
  C   C2857     1.0  0.1321189852125746  0.026601178071303216  0.267893872449258  1.0000
  N   N792      1.0  0.14191648484944586  0.030035351447065494  0.250747382577553  1.0000
  N   N793      1.0  0.20370146804894862  0.9940449049295258  0.2786226761118392  1.0000
  C   C2858     1.0  0.2244839178240554  0.011362567422183875  0.28048429501219574  1.0000
  C   C2859     1.0  0.2487588308219597  0.007111481442297842  0.2934176473725675  1.0000
  O   O823      1.0  0.26784762352119806  0.020538386451184228  0.2958344859449602  1.0000
  C   C2860     1.0  0.2171369411986419  0.03461640923670873  0.29134373859760887  1.0000
  C   C2861     1.0  0.19999691684674759  0.046676164473999374  0.27780617659413886  1.0000
  C   C2862     1.0  0.1947978990545941  0.06845435823803724  0.29245417794168116  1.0000
  C   C2863     1.0  0.21241693881559842  0.05168179909943281  0.25904301767738747  1.0000
  N   N794      1.0  0.24855279203417346  0.9891760409402202  0.3021705222023141  1.0000
  C   C2864     1.0  0.2708479531409128  0.9857679417844585  0.31631229384888226  1.0000
  C   C2865     1.0  0.2945335941404613  0.9856224401148125  0.30527322036957494  1.0000
  O   O824      1.0  0.31499732384226  0.9952212085427964  0.315642764244368  1.0000
  C   C2866     1.0  0.2660503474662719  0.9639557230069451  0.32382408941172447  1.0000
  O   O825      1.0  0.25732709575902857  0.9455939740157479  0.305256890379221  1.0000
  C   C2867     1.0  0.2461293915261199  0.9664395103483099  0.3389783204602408  1.0000
  N   N795      1.0  0.29211314517314246  0.9754869474282141  0.28407689289007676  1.0000
  C   C2868     1.0  0.3137744211414487  0.9741023402931644  0.2722866398544853  1.0000
  C   C2869     1.0  0.31443494791030024  0.9906676381667643  0.25749166859375694  1.0000
  O   O826      1.0  0.3261360236788281  0.9870632830962089  0.24179854786355837  1.0000
  C   C2870     1.0  0.31420702049589133  0.9498029987864899  0.2592716375423435  1.0000
  C   C2871     1.0  0.32497062845296143  0.9347810419798106  0.2735277191213896  1.0000
  O   O827      1.0  0.34322067815356205  0.9420196233246145  0.28789811063291393  1.0000
  N   N796      1.0  0.31372704868101653  0.9137990346565104  0.2695595314653666  1.0000
  N   N797      1.0  0.3028222475379716  0.009208124009447156  0.26261928556491443  1.0000
  C   C2872     1.0  0.3008455361914951  0.02539165357136782  0.24893475364825846  1.0000
  C   C2873     1.0  0.32376342786318946  0.043173417959963906  0.2547808901949923  1.0000
  O   O828      1.0  0.3300795193207  0.054372705122908885  0.2737073490152837  1.0000
  C   C2874     1.0  0.27661750130081963  0.03675859605613032  0.25146590215312925  1.0000
  S   S40       1.0  0.27615080346512566  0.06367122058591483  0.24436235634913706  1.0000
  N   N798      1.0  0.3362161275810446  0.04550739764741461  0.23843456985063338  1.0000
  C   C2875     1.0  0.3548707380829639  0.06457384504761884  0.23978995905001588  1.0000
  C   C2876     1.0  0.34752129236113904  0.07438808266280325  0.22012865066379417  1.0000
  O   O829      1.0  0.34081954354697097  0.06176867886627588  0.20177374150589267  1.0000
  C   C2877     1.0  0.3820318892611346  0.057521803692443786  0.2403288487316979  1.0000
  C   C2878     1.0  0.4017667701984404  0.07837966827862362  0.24326824699541882  1.0000
  C   C2879     1.0  0.3882248932215394  0.04447461144089389  0.2579652383140232  1.0000
  N   N799      1.0  0.34852574070727227  0.09696556519785005  0.22396619839698517  1.0000
  C   C2880     1.0  0.3405512781784068  0.1083788703568704  0.20690135847705016  1.0000
  C   C2881     1.0  0.3625919574327522  0.12360524322700395  0.20325977062810718  1.0000
  O   O830      1.0  0.37798670612175755  0.13430502846886733  0.21898555133901376  1.0000
  C   C2882     1.0  0.31864504818084904  0.12260063908751583  0.21271483504307598  1.0000
  C   C2883     1.0  0.2951860893448557  0.10861391886530387  0.21565423330679678  1.0000
  C   C2884     1.0  0.27434496412472587  0.12324958713283976  0.22187595963167261  1.0000
  N   N800      1.0  0.2739944572148467  0.14189881390353182  0.21103284603661343  1.0000
  C   C2885     1.0  0.27415065551535767  0.16355990212372445  0.22117377004645045  1.0000
  N   N801      1.0  0.2746593230555431  0.16966195715611612  0.2425497274198426  1.0000
  N   N802      1.0  0.2738637466248408  0.17927973420490356  0.209791766769709  1.0000
  N   N803      1.0  0.36494297119383634  0.12455041438051576  0.18284728268560124  1.0000
  C   C2886     1.0  0.3838145843843922  0.141069202108954  0.17871579512603797  1.0000
  C   C2887     1.0  0.37682734169207255  0.1650298881770324  0.185803010939676  1.0000
  O   O831      1.0  0.3546391696573653  0.16893989204271526  0.18565604102648992  1.0000
  C   C2888     1.0  0.38301573545280077  0.13412295171043082  0.15394319975901272  1.0000
  C   C2889     1.0  0.35692006113013475  0.12233856494579555  0.14569655463024034  1.0000
  C   C2890     1.0  0.3505986152719597  0.11014917614744872  0.16248378471415725  1.0000
  N   N804      1.0  0.3961194046770786  0.18113738851260536  0.19199207728384393  1.0000
  C   C2891     1.0  0.3930958688372954  0.2051414633968168  0.1996508427598721  1.0000
  C   C2892     1.0  0.3989976638674019  0.21657841139664832  0.18162253340905077  1.0000
  O   O832      1.0  0.42060989538080995  0.21781460018462698  0.1768705062160355  1.0000
  C   C2893     1.0  0.41046225940030523  0.2151725593216167  0.22135339994034442  1.0000
  C   C2894     1.0  0.406520552427282  0.23966073902138088  0.2318862437186775  1.0000
  O   O833      1.0  0.40147326916432213  0.2531905230130764  0.22016131064450206  1.0000
  O   O834      1.0  0.4090982807214121  0.24551094954137465  0.2523150616515375  1.0000
  N   N805      1.0  0.37977034035881474  0.22475079212707103  0.1714326194281519  1.0000
  C   C2895     1.0  0.38316298083101064  0.23422874379856642  0.1528001004342323  1.0000
  C   C2896     1.0  0.4006966972646343  0.2561242810519852  0.15905448673981626  1.0000
  O   O835      1.0  0.4090855604121534  0.26374732862354316  0.14453712531510599  1.0000
  C   C2897     1.0  0.3576356134299371  0.2381802808740607  0.14097718741793297  1.0000
  C   C2898     1.0  0.3401539654177429  0.21609440664732024  0.13382465164287882  1.0000
  C   C2899     1.0  0.3460117599878678  0.2563613232304792  0.1556415187558292  1.0000
  N   N806      1.0  0.4070218879243618  0.26619399821275375  0.18025081421931444  1.0000
  C   C2900     1.0  0.42438240275683226  0.2868785025944122  0.1872563800811824  1.0000
  C   C2901     1.0  0.4519175999478364  0.2825454351527744  0.1872890400618905  1.0000
  O   O836      1.0  0.4678801727652945  0.2985503087462487  0.18830149946383867  1.0000
  C   C2902     1.0  0.4210206960282672  0.2996767288290468  0.21010203658643511  1.0000
  C   C2903     1.0  0.3952692791724479  0.30839185752936266  0.2114247658051096  1.0000
  C   C2904     1.0  0.3910714163724254  0.315160574914825  0.23515224178947847  1.0000
  N   N807      1.0  0.3914108768780822  0.29589326089773116  0.24516252587648346  1.0000
  C   C2905     1.0  0.38247434215107723  0.2952791893973725  0.2635990849861548  1.0000
  N   N808      1.0  0.3725479295484685  0.31294637950310916  0.274409538600506  1.0000
  N   N809      1.0  0.38351334091820943  0.2768580501212957  0.2712578504621831  1.0000
  N   N810      1.0  0.45782300162801204  0.2615491107938061  0.18650520052489816  1.0000
  C   C2906     1.0  0.4837071172725411  0.25594219922111033  0.19021210833525737  1.0000
  C   C2907     1.0  0.48859668828380665  0.23806088183033713  0.1705344699586816  1.0000
  O   O837      1.0  0.47390990121515897  0.22059188901676524  0.1633002842318575  1.0000
  C   C2908     1.0  0.48887095049767426  0.24759497850469148  0.21134311585333954  1.0000
  C   C2909     1.0  0.5149217905165822  0.23915298666143472  0.21330271469582018  1.0000
  C   C2910     1.0  0.48687910923866806  0.266576989177187  0.23134735403699536  1.0000
  N   N811      1.0  0.5093831513500678  0.24232999135495217  0.16223883485884716  1.0000
  C   C2911     1.0  0.5154469366964187  0.22695115580135464  0.1429041262797056  1.0000
  C   C2912     1.0  0.5157888870703653  0.20299412865322988  0.14621911432156842  1.0000
  O   O838      1.0  0.5234582410391228  0.20005803930135632  0.1644433835566378  1.0000
  C   C2913     1.0  0.5411303991397354  0.235016870156868  0.137776509308548  1.0000
  O   O839      1.0  0.55171884982843  0.21661857918638433  0.12548002657198243  1.0000
  N   N812      1.0  0.5073065114779034  0.18560587076188814  0.12918693438234152  1.0000
  C   C2914     1.0  0.5109416310938419  0.1623203687252127  0.13077094344667994  1.0000
  C   C2915     1.0  0.5382345573256658  0.15952966216243122  0.1382664090191681  1.0000
  O   O840      1.0  0.543257495294509  0.14729174584652263  0.15095481152422985  1.0000
  C   C2916     1.0  0.5015545346654477  0.1483810722483622  0.10737006726939113  1.0000
  C   C2917     1.0  0.48248727009721726  0.161721389981411  0.09832325261327246  1.0000
  C   C2918     1.0  0.4920039701222161  0.1863261423376775  0.10839885666169347  1.0000
  N   N813      1.0  0.5560780437441017  0.1712231603705431  0.13126084315730013  1.0000
  C   C2919     1.0  0.5827190236229  0.1701370124784319  0.13793980921208804  1.0000
  C   C2920     1.0  0.5920998894232447  0.18057614599492225  0.1618795750710591  1.0000
  O   O841      1.0  0.6128179280274959  0.17638155732483016  0.1700119102673534  1.0000
  N   N814      1.0  0.5774546364855845  0.1939372135936967  0.17329423832850843  1.0000
  C   C2921     1.0  0.5846252798713429  0.20475706864593757  0.19645016465048715  1.0000
  C   C2922     1.0  0.5660743521350511  0.19664405431362683  0.20992240669254114  1.0000
  O   O842      1.0  0.5630912310897678  0.20857105936441517  0.22754246628451225  1.0000
  C   C2923     1.0  0.5867647433491551  0.2305408987100065  0.20035303234509427  1.0000
  C   C2924     1.0  0.6085087777621083  0.24002096293211633  0.19132254767932966  1.0000
  C   C2925     1.0  0.6328371401709489  0.2354826467098637  0.1976749139270375  1.0000
  C   C2926     1.0  0.6046510301679711  0.25304739572634805  0.1763152865439993  1.0000
  C   C2927     1.0  0.6528205503082134  0.24385845861209407  0.18942826879826513  1.0000
  C   C2928     1.0  0.6246287854472101  0.2614150903654425  0.1680359814345188  1.0000
  C   C2929     1.0  0.6487608942927141  0.2567856000520238  0.1746169675471828  1.0000
  N   N815      1.0  0.5536760564927032  0.17629646394121443  0.2016920915541226  1.0000
  C   C2930     1.0  0.53716974301619  0.1653154815754278  0.21341702462829815  1.0000
  C   C2931     1.0  0.5470748601233681  0.14332849899137515  0.21645440283414297  1.0000
  O   O843      1.0  0.5621300570659125  0.13413585066447806  0.20507239955740164  1.0000
  C   C2932     1.0  0.5101717137347875  0.15999434435039128  0.2010715519206705  1.0000
  O   O844      1.0  0.5033496769842352  0.1773188965654208  0.19052237815198347  1.0000
  N   N816      1.0  0.5382717882795014  0.13492112204520848  0.23198422366080151  1.0000
  C   C2933     1.0  0.5413588936021785  0.11186562499375206  0.23363355268655606  1.0000
  C   C2934     1.0  0.5233869122261794  0.09511006162270524  0.2154419434321948  1.0000
  O   O845      1.0  0.5074043726940693  0.10148052411393421  0.20309647072456716  1.0000
  C   C2935     1.0  0.536182772068577  0.10860433122785762  0.2558423395680025  1.0000
  C   C2936     1.0  0.5526039614517892  0.12459460225102112  0.2755199779445783  1.0000
  C   C2937     1.0  0.5434837283359606  0.12279932619707072  0.2969449252890326  1.0000
  O   O846      1.0  0.5375967291550349  0.10426836121954161  0.30039055325372754  1.0000
  N   N817      1.0  0.541599264492804  0.1421948319912602  0.3110703669452466  1.0000
  N   N818      1.0  0.5258768238743851  0.073338700400339  0.2140538942521043  1.0000
  C   C2938     1.0  0.509202226087668  0.05568783999908837  0.19814848364730364  1.0000
  C   C2939     1.0  0.504308238174402  0.03582791818396818  0.20835472761855667  1.0000
  O   O847      1.0  0.5191993398902288  0.03289719118388392  0.22362326859955106  1.0000
  C   C2940     1.0  0.5204269687654587  0.04825299314789818  0.17703380611957542  1.0000
  C   C2941     1.0  0.5435478901251816  0.036156900582924555  0.18010384430612836  1.0000
  O   O848      1.0  0.5415124410453964  0.01598753787699443  0.18039778413250052  1.0000
  N   N819      1.0  0.5657766268924955  0.04830181090368494  0.18232472299427294  1.0000
  N   N820      1.0  0.4829658447236994  0.02222336598504953  0.19979781267305807  1.0000
  C   C2942     1.0  0.47504529278600527  0.0033292843061275075  0.2087956373581148  1.0000
  C   C2943     1.0  0.4875840353899056  0.9820277394539958  0.20063064218111237  1.0000
  O   O849      1.0  0.4865402709267459  0.9666257843553374  0.21031432646103732  1.0000
  C   C2944     1.0  0.4463091709253372  0.998424206757703  0.20388031026155928  1.0000
  S   S41       1.0  0.43094622093961266  0.02143820389328028  0.21774447207210945  1.0000
  N   N821      1.0  0.4998615647017606  0.9809684652051135  0.18353314228046946  1.0000
  C   C2945     1.0  0.513671559820023  0.9616665029969973  0.17613565665010522  1.0000
  C   C2946     1.0  0.5355268229797889  0.9603612888820138  0.19344544642535033  1.0000
  O   O850      1.0  0.5401037094640742  0.9418950526543861  0.19721767419712544  1.0000
  C   C2947     1.0  0.5233384437793936  0.9631408093297483  0.15480868924777502  1.0000
  C   C2948     1.0  0.508077598514873  0.9468517459398966  0.13472280111234913  1.0000
  C   C2949     1.0  0.5089864496313734  0.9225525376089507  0.13705798973297179  1.0000
  C   C2950     1.0  0.4811420146606893  0.9524841369609679  0.13204468269429226  1.0000
  N   N822      1.0  0.5494662210001584  0.9797892304348148  0.20386398027120534  1.0000
  C   C2951     1.0  0.5702524481596992  0.9803338483062045  0.22120643002715834  1.0000
  C   C2952     1.0  0.5612799626484326  0.9705620003203317  0.2391857494069176  1.0000
  O   O851      1.0  0.5734758638777986  0.9570571628896688  0.24697515480577792  1.0000
  C   C2953     1.0  0.5824452477083977  0.004611607229992996  0.23069415442283514  1.0000
  N   N823      1.0  0.539911011511001  0.9770105807017553  0.24607700533630772  1.0000
  C   C2954     1.0  0.5313502573316831  0.9680952800379713  0.2635990849861548  1.0000
  C   C2955     1.0  0.523898237565644  0.9426108371122155  0.25607095943295866  1.0000
  O   O852      1.0  0.5313598867175426  0.930088188520994  0.26781222249748793  1.0000
  C   C2956     1.0  0.5099331761701484  0.980840063703976  0.27233562982554727  1.0000
  C   C2957     1.0  0.519796851414529  0.004717597765809979  0.28484440243671505  1.0000
  C   C2958     1.0  0.532435857180873  0.009113547758192102  0.30623668980046126  1.0000
  C   C2959     1.0  0.5173527106415463  0.02274651526609663  0.27514438816643616  1.0000
  C   C2960     1.0  0.5419711448566003  0.031000663215075035  0.3176840130386186  1.0000
  C   C2961     1.0  0.5268552271942732  0.044687858419662795  0.2863467615492835  1.0000
  C   C2962     1.0  0.5390516675477268  0.048706017848894397  0.3076084089901977  1.0000
  O   O853      1.0  0.5484432250411552  0.0705538031212122  0.31850051255631884  1.0000
  N   N824      1.0  0.5103716337010129  0.9344444230967999  0.2361810311817808  1.0000
  C   C2963     1.0  0.5035988277751782  0.9100020968862902  0.22801603600477838  1.0000
  C   C2964     1.0  0.5270739699918038  0.8974218186227245  0.22695458663176815  1.0000
  O   O854      1.0  0.5276030376838223  0.8791602696980189  0.23227816348717367  1.0000
  C   C2965     1.0  0.48701531840020496  0.904696547123211  0.2056766092004998  1.0000
  C   C2966     1.0  0.4615360617318748  0.9141291828963771  0.20631347882430606  1.0000
  C   C2967     1.0  0.4448507301742912  0.9079931124421026  0.18400671200073548  1.0000
  C   C2968     1.0  0.4277305951063274  0.92644704430288  0.1815082234765728  1.0000
  N   N825      1.0  0.40671742356255014  0.9189880074283608  0.1628103845212373  1.0000
  N   N826      1.0  0.5470446338310928  0.9072822189641457  0.22110845008503432  1.0000
  C   C2969     1.0  0.5701180054684163  0.8962190457814215  0.21999801074096204  1.0000
  C   C2970     1.0  0.5862258303915683  0.8990915291543513  0.24214147766099248  1.0000
  O   O855      1.0  0.6018790206554916  0.8855636912436095  0.2442807063973672  1.0000
  C   C2971     1.0  0.5858773424092059  0.905081746000901  0.2047784597310296  1.0000
  C   C2972     1.0  0.5737955139372822  0.8973712500304231  0.1811652936791387  1.0000
  O   O856      1.0  0.561242210159374  0.8787257869494915  0.17415972781727063  1.0000
  N   N827      1.0  0.5774006569774567  0.9117214723704673  0.16870551103903308  1.0000
  N   N828      1.0  0.5833855781142613  0.9163751000456696  0.25848779800535127  1.0000
  C   C2973     1.0  0.5978749972764693  0.9194011024695847  0.2801903551858236  1.0000
  C   C2974     1.0  0.582896407127506  0.9054798865337349  0.2921928980960171  1.0000
  O   O857      1.0  0.5637885764923083  0.9119645758888985  0.2993617638614252  1.0000
  C   C2975     1.0  0.603088028306138  0.9442665255499815  0.2923072080284951  1.0000
  C   C2976     1.0  0.6232275790507522  0.9481075706765238  0.3123930961639211  1.0000
  O   O858      1.0  0.6208642135282967  0.9359828773341461  0.32566937832172693  1.0000
  O   O859      1.0  0.6415031085333072  0.9630133782406545  0.31513653454339385  1.0000
  N   N829      1.0  0.5918315300348436  0.8861435091921216  0.29425047688062167  1.0000
  C   C2977     1.0  0.5786030053164781  0.8696950885084241  0.30336261149815646  1.0000
  C   C2978     1.0  0.5779023111951762  0.8781105778297164  0.32762897716420747  1.0000
  O   O860      1.0  0.5634570550819136  0.8675748839835029  0.3363818519939541  1.0000
  C   C2979     1.0  0.591142433485186  0.8476606727718454  0.2993944238421332  1.0000
  C   C2980     1.0  0.5890388057289542  0.8352858479404981  0.2752750280892682  1.0000
  C   C2981     1.0  0.562001512842781  0.8329479143912862  0.2633541351308447  1.0000
  C   C2982     1.0  0.5608291943879586  0.8241059309280283  0.23876116965771355  1.0000
  N   N830      1.0  0.5736599448607107  0.840832769937535  0.22871822559000055  1.0000
  N   N831      1.0  0.5931981079480576  0.8964348951281949  0.3386353906628067  1.0000
  C   C2983     1.0  0.5950424411280325  0.9048116823304792  0.36215057677257356  1.0000
  C   C2984     1.0  0.5842027949516142  0.9271379817126173  0.3686825729141755  1.0000
  O   O861      1.0  0.5798023656799465  0.9336097576341308  0.38757637175375903  1.0000
  C   C2985     1.0  0.6226168277596074  0.9080078380432655  0.37309167030975676  1.0000
  C   C2986     1.0  0.6353494584958619  0.8865847293041064  0.3707891416698421  1.0000
  C   C2987     1.0  0.6598876203537694  0.8903297994653859  0.38618832257366864  1.0000
  O   O862      1.0  0.6800879417981499  0.8946332146501088  0.38001558621985476  1.0000
  N   N832      1.0  0.6581996247157741  0.8894008628381459  0.4066661304775906  1.0000
  N   N833      1.0  0.5798950788340714  0.9389268554107847  0.3537243017499071  1.0000
  C   C2988     1.0  0.5728527393102663  0.9618666029313067  0.35868861881752456  1.0000
  C   C2989     1.0  0.5452419866207195  0.9619206831570862  0.34951116423857387  1.0000
  O   O863      1.0  0.5370726709733317  0.9525024405990452  0.3302744356015562  1.0000
  C   C2990     1.0  0.5897419173354241  0.9772924911090013  0.3492335544025559  1.0000
  C   C2991     1.0  0.5866601967815258  0.002144577341794233  0.3565330600907959  1.0000
  S   S42       1.0  0.5939632401964823  0.01268570953482601  0.38584539277623453  1.0000
  C   C2992     1.0  0.62689528055012  0.00979701533796394  0.3905647599885419  1.0000
  N   N834      1.0  0.5309628897168228  0.9722938127938038  0.36326101611664596  1.0000
  C   C2993     1.0  0.5062009382453149  0.9777368803235497  0.3555206006888476  1.0000
  C   C2994     1.0  0.5079448719809241  0.0031064397294637116  0.3565657200715039  1.0000
  O   O864      1.0  0.5284196433824164  0.01380671986115558  0.3567453499653981  1.0000
  C   C2995     1.0  0.4869557749313278  0.9699612795938958  0.3688948627887776  1.0000
  O   O865      1.0  0.4623635104528371  0.9746428231691013  0.36146471717770545  1.0000
  N   N835      1.0  0.4866465713353356  0.012925192684102  0.3573005696374342  1.0000
  C   C2996     1.0  0.48589232239499713  0.03712857352068886  0.35921117850885265  1.0000
  C   C2997     1.0  0.46593922680139355  0.045383454305031275  0.37330396018435885  1.0000
  O   O866      1.0  0.44835372232933124  0.03226629472035481  0.3755738288435655  1.0000
  C   C2998     1.0  0.48028238607783835  0.0428367844129222  0.3367247817913882  1.0000
  C   C2999     1.0  0.45410405171036694  0.033207978311584105  0.3241833491995125  1.0000
  C   C3000     1.0  0.43306778259331546  0.0449010768080818  0.32756365720279157  1.0000
  C   C3001     1.0  0.45042476495341444  0.012199425765222534  0.30925773801595213  1.0000
  C   C3002     1.0  0.40916368017940496  0.03602408343970181  0.31645926376206823  1.0000
  C   C3003     1.0  0.42648687949955544  0.00321607055533324  0.2979900446716889  1.0000
  C   C3004     1.0  0.4059807819843141  0.015146663234628606  0.30166429250133986  1.0000
  O   O867      1.0  0.38213479702494346  0.006429840694069692  0.2906088890316786  1.0000
  N   N836      1.0  0.46928452912603325  0.06743233454818173  0.3830203044449917  1.0000
  C   C3005     1.0  0.45148354650373934  0.07850267809990978  0.3960026467764255  1.0000
  C   C3006     1.0  0.44737277800081976  0.10099946859825126  0.3903851300946478  1.0000
  O   O868      1.0  0.4571424886018046  0.10653882992183482  0.37568813877604357  1.0000
  N   N837      1.0  0.4330428199641688  0.11401717976612945  0.4024693229566113  1.0000
  C   C3007     1.0  0.42665294573714985  0.13560536968059544  0.3981582055031542  1.0000
  C   C3008     1.0  0.43292327312585765  0.15455218968313314  0.4188809632623862  1.0000
  O   O869      1.0  0.42908004426871227  0.15124341517560555  0.43666432275789735  1.0000
  C   C3009     1.0  0.3987348408308694  0.13384292439328818  0.38881745102066334  1.0000
  C   C3010     1.0  0.3915204442121466  0.1165511220618626  0.3673435137051472  1.0000
  C   C3011     1.0  0.39856466476723107  0.1209412625861621  0.3482210950006076  1.0000
  C   C3012     1.0  0.37793246449793183  0.0959504976338023  0.3662330743610748  1.0000
  C   C3013     1.0  0.392008176023229  0.10506756421950099  0.32808621689411965  1.0000
  C   C3014     1.0  0.3709680591897324  0.08002361834638652  0.34601654630281686  1.0000
  C   C3015     1.0  0.3780831571569646  0.08457777897488931  0.3270247675211093  1.0000
  N   N838      1.0  0.4428045875638531  0.17442372591526437  0.4165947646128255  1.0000
  C   C3016     1.0  0.4500416333459386  0.19319447839104134  0.4358151632594891  1.0000
  C   C3017     1.0  0.4269163023233389  0.20367335609888587  0.4435065887162253  1.0000
  O   O870      1.0  0.4232849649916236  0.20579499263174691  0.46262900742076496  1.0000
  C   C3018     1.0  0.4689541129950793  0.21094375472833665  0.4312754259410758  1.0000
  C   C3019     1.0  0.49658599540348325  0.20554183499196285  0.4313080859217837  1.0000
  C   C3020     1.0  0.5120676601872316  0.2253565979712501  0.42621312893133434  1.0000
  C   C3021     1.0  0.5087000410365353  0.2002600373586561  0.45286367318907006  1.0000
  N   N839      1.0  0.41113274908758246  0.21051479591324937  0.42915252719505514  1.0000
  C   C3022     1.0  0.38689931238365716  0.2163198904829349  0.435439573481347  1.0000
  C   C3023     1.0  0.36966916441322495  0.19467230087642484  0.4326308151404582  1.0000
  O   O871      1.0  0.36585146388543965  0.1807066732352809  0.41488011562565497  1.0000
  C   C3024     1.0  0.3738984879184932  0.23126012747573757  0.4223102612367272  1.0000
  C   C3025     1.0  0.3477395276050884  0.23509530595349748  0.42755218814036267  1.0000
  C   C3026     1.0  0.3445065026725428  0.2504213792967117  0.44667460684490223  1.0000
  C   C3027     1.0  0.32647471394539884  0.222686356226878  0.41407994609830867  1.0000
  C   C3028     1.0  0.32070120567593197  0.25373868018615403  0.4518838737678299  1.0000
  C   C3029     1.0  0.30244972372323475  0.22578197874942293  0.4191912330791122  1.0000
  C   C3030     1.0  0.2995144627879677  0.24124023120985422  0.43811769189940375  1.0000
  N   N840      1.0  0.3586674177677076  0.19171198820729  0.44943437521472906  1.0000
  C   C3031     1.0  0.3438085840405848  0.1705794260995368  0.4488301655716309  1.0000
  C   C3032     1.0  0.31795086241469406  0.16832509656087308  0.4351946236260369  1.0000
  O   O872      1.0  0.3034547951506299  0.183227763797218  0.43891786142675004  1.0000
  C   C3033     1.0  0.3412560465437525  0.1726400879806645  0.4728679113727259  1.0000
  C   C3034     1.0  0.34158916211269963  0.19712902421813222  0.48188206604813655  1.0000
  C   C3035     1.0  0.3603793616317511  0.20812092634750848  0.47059804271351935  1.0000
  N   N841      1.0  0.31089495210909124  0.14948090330043395  0.4196484728090244  1.0000
  C   C3036     1.0  0.2849424590907017  0.145584022223587  0.4080051896866189  1.0000
  C   C3037     1.0  0.26555098038865677  0.14394039531912534  0.42315942073513546  1.0000
  O   O873      1.0  0.24391227954903016  0.148765827606773  0.418293083609642  1.0000
  C   C3038     1.0  0.28461258928684974  0.12319297509279031  0.39089135979562206  1.0000
  C   C3039     1.0  0.31225696623140176  0.11964850501251492  0.38986257040331973  1.0000
  C   C3040     1.0  0.32578061454481777  0.13048221080094535  0.4125449270050323  1.0000
  N   N842      1.0  0.2729175295981304  0.13766962859739487  0.4415959798448068  1.0000
  C   C3041     1.0  0.2558803731288989  0.13588423982628026  0.45737075052677545  1.0000
  C   C3042     1.0  0.2447040609750959  0.1579048381206015  0.46565005563625583  1.0000
  O   O874      1.0  0.2250672369860781  0.15729928359499296  0.4737334008614883  1.0000
  C   C3043     1.0  0.269749099619102  0.12885328616416297  0.4769830689419352  1.0000
  C   C3044     1.0  0.2831722916251347  0.1080996565737031  0.4710226224627234  1.0000
  C   C3045     1.0  0.26961738782227107  0.08712222177055648  0.4617798479223566  1.0000
  C   C3046     1.0  0.3094804009081954  0.10945361226501628  0.4744192604563564  1.0000
  C   C3047     1.0  0.28172442401798736  0.0679051529980349  0.4561133412695171  1.0000
  C   C3048     1.0  0.32193433573045493  0.09015432408520731  0.4687527538035168  1.0000
  C   C3049     1.0  0.30776707462668884  0.0693947183725758  0.459526309253504  1.0000
  O   O875      1.0  0.31939574143293314  0.049861994641537115  0.4535821927646463  1.0000
  N   N843      1.0  0.2568249267161179  0.17722736472602518  0.4640660465719173  1.0000
  C   C3050     1.0  0.24976922093573717  0.19945649959965067  0.47397835071679817  1.0000
  C   C3051     1.0  0.23934267825518774  0.21202003903995156  0.4571747906425274  1.0000
  O   O876      1.0  0.2376597744611989  0.2325769701184789  0.46293927723749106  1.0000
  C   C3052     1.0  0.2726805287151388  0.21345079460606306  0.4891979017267307  1.0000
  C   C3053     1.0  0.2795099132737927  0.20431740790747102  0.5093491098235726  1.0000
  C   C3054     1.0  0.30266875028331686  0.21796546309949413  0.5235725314219107  1.0000
  C   C3055     1.0  0.257721292271346  0.205155598561081  0.5223151221646525  1.0000
  N   N844      1.0  0.23242649332061727  0.20024233264250202  0.4365826728061273  1.0000
  C   C3056     1.0  0.22150195560755082  0.21064017578272679  0.4195341628765463  1.0000
  C   C3057     1.0  0.19755024995599246  0.22110077300154954  0.42523332951009396  1.0000
  O   O877      1.0  0.1833483364423848  0.2128120289698103  0.4358151632594891  1.0000
  C   C3058     1.0  0.21503677574064517  0.19286723290228078  0.3981092155320921  1.0000
  O   O878      1.0  0.1983632413198252  0.17514649545810743  0.401440533564309  1.0000
  N   N845      1.0  0.1927706906369101  0.2392500648456137  0.4177378639376058  1.0000
  C   C3059     1.0  0.1716160440660477  0.2517732177338282  0.4237962903589416  1.0000
  C   C3060     1.0  0.14687275215367868  0.24239069873308794  0.4088053592139652  1.0000
  O   O879      1.0  0.12755373673343817  0.25151001574871207  0.41228364715936816  1.0000
  C   C3061     1.0  0.17756342092508481  0.27676302149688103  0.4240412402142516  1.0000
  O   O880      1.0  0.1830437258055293  0.27881930610229394  0.4032694924839576  1.0000
  N   N846      1.0  0.1468088147574269  0.22446133912298874  0.3925733488020844  1.0000
  C   C3062     1.0  0.12463116964222276  0.21600001531119925  0.3761943684770176  1.0000
  C   C3063     1.0  0.13103562073127784  0.1954432745891004  0.36010932797832296  1.0000
  O   O881      1.0  0.15332126358245046  0.19350679344260763  0.3576108394541603  1.0000
  C   C3064     1.0  0.11670928742776487  0.23423295875491862  0.36440411544142626  1.0000
  O   O882      1.0  0.13259364467065338  0.23599399573662558  0.3485313648173336  1.0000
  N   N847      1.0  0.11227201669948461  0.17958449273331473  0.3494295142868039  1.0000
  C   C3065     1.0  0.11733561522943947  0.16036284673705717  0.3323646743668689  1.0000
  C   C3066     1.0  0.1311214230520581  0.16708642446987185  0.3150222246109159  1.0000
  O   O883      1.0  0.14788703389613445  0.15581510012428262  0.30831059857541987  1.0000
  C   C3067     1.0  0.09078819597488041  0.14852561687899937  0.32264833010623606  1.0000
  C   C3068     1.0  0.07635102252705273  0.15299123926270075  0.3415421289458195  1.0000
  C   C3069     1.0  0.08674754343136903  0.1763345327377989  0.3552756508335375  1.0000
  N   N848      1.0  0.12458712074030032  0.18488654552694672  0.3074451090866577  1.0000
  C   C3070     1.0  0.13730987362670166  0.19151426247147013  0.29051090908955457  1.0000
  C   C3071     1.0  0.16462048117672756  0.20126199172546058  0.2992964439000092  1.0000
  O   O884      1.0  0.1814266504836689  0.19707297005876134  0.2877348107293739  1.0000
  C   C3072     1.0  0.12309156901536267  0.20875751358299444  0.28095786473246187  1.0000
  C   C3073     1.0  0.09527909237770482  0.20118673822000163  0.27147014033678507  1.0000
  C   C3074     1.0  0.07803473857006948  0.20323565721197193  0.2889105700348622  1.0000
  O   O885      1.0  0.08456708545319691  0.19618529540186488  0.305599820176655  1.0000
  O   O886      1.0  0.05774324094037697  0.2117345983693263  0.2858568618386633  1.0000
  N   N849      1.0  0.1694046359593786  0.21469345966290795  0.31952930194862106  1.0000
  C   C3075     1.0  0.19516046248466523  0.22496655570279478  0.32857611660473973  1.0000
  C   C3076     1.0  0.2127892057497579  0.20714435246942298  0.3314991848781067  1.0000
  O   O887      1.0  0.23526943922540733  0.21046313314034024  0.3298335258619981  1.0000
  C   C3077     1.0  0.1956774741267947  0.24203094619426938  0.35045830367910613  1.0000
  N   N850      1.0  0.20280273171148255  0.18805709802279338  0.33535306260165176  1.0000
  C   C3078     1.0  0.21895543297284348  0.1714100613365597  0.3410195692544914  1.0000
  C   C3079     1.0  0.2337018580540945  0.16203821945029104  0.3226973200772981  1.0000
  O   O888      1.0  0.25453120883572944  0.15537722462283107  0.3269267875789853  1.0000
  C   C3080     1.0  0.20300493854318602  0.1523541006943986  0.346653415926623  1.0000
  C   C3081     1.0  0.21788945973260831  0.13674782941408245  0.35723524967601816  1.0000
  C   C3082     1.0  0.20079420225203537  0.11578062442468619  0.3576271694445142  1.0000
  C   C3083     1.0  0.18087282390269577  0.12152134707055981  0.3724548006859506  1.0000
  N   N851      1.0  0.19046950456721046  0.12345317951744202  0.3956433869886373  1.0000
  N   N852      1.0  0.22364958862914908  0.16188955845410208  0.3023828120769161  1.0000
  C   C3084     1.0  0.23716379979487545  0.1533967314826584  0.28428918276467874  1.0000
  C   C3085     1.0  0.2625910204839419  0.16713607023923685  0.28670602133707157  1.0000
  O   O889      1.0  0.2801945855670135  0.15801818541598056  0.2789329459285653  1.0000
  C   C3086     1.0  0.2210362674727373  0.15320719393256504  0.26261928556491443  1.0000
  C   C3087     1.0  0.199240992638831  0.13468972286513622  0.25672415904711876  1.0000
  C   C3088     1.0  0.1764911802811957  0.13810480203347333  0.2647748442916431  1.0000
  C   C3089     1.0  0.2015709245266757  0.113614010189684  0.24351319685072892  1.0000
  C   C3090     1.0  0.15677658615874346  0.1210686173113709  0.25974520726260963  1.0000
  C   C3091     1.0  0.18183841322956495  0.09643857586315735  0.23832025991815542  1.0000
  C   C3092     1.0  0.1596115075282185  0.10022759631826278  0.24641993513374183  1.0000
  O   O890      1.0  0.14025015621814085  0.0830525807021076  0.2410963582783362  1.0000
  N   N853      1.0  0.26485556839185287  0.18900925407689087  0.29736950503823667  1.0000
  C   C3093     1.0  0.28908870019917265  0.2030092635575996  0.30182759240488  1.0000
  C   C3094     1.0  0.30890820480522574  0.19350558978861074  0.31565909423472205  1.0000
  O   O891      1.0  0.33102301422728264  0.1941864074112709  0.312311446212151  1.0000
  C   C3095     1.0  0.2862100104878952  0.22720069685342564  0.3138791252861355  1.0000
  C   C3096     1.0  0.27536183860685404  0.24115526685166894  0.2991658039771772  1.0000
  O   O892      1.0  0.2753351504798497  0.23429687415527264  0.2790472558610433  1.0000
  O   O893      1.0  0.2671839644832916  0.2592970742017367  0.30811463869117184  1.0000
  N   N854      1.0  0.30146698692185414  0.1849940254358313  0.3316298248009386  1.0000
  C   C3097     1.0  0.31973237231645035  0.17688151069693137  0.34622883617741895  1.0000
  C   C3098     1.0  0.33231643203075845  0.15691979485687313  0.33432427320934943  1.0000
  O   O894      1.0  0.3520244873063285  0.15191204768082534  0.34348539779794607  1.0000
  C   C3099     1.0  0.3070446002401993  0.17038542568710702  0.3644204454317802  1.0000
  N   N855      1.0  0.3216238109426607  0.14559678366717924  0.31423838507392354  1.0000
  C   C3100     1.0  0.33190681751304996  0.12610143933616977  0.3017622724434639  1.0000
  C   C3101     1.0  0.34760917120487134  0.13209533410143032  0.28505669231131703  1.0000
  O   O895      1.0  0.3552448596230309  0.11683221948841738  0.2719437100570512  1.0000
  C   C3102     1.0  0.31043680575169197  0.10732179876437843  0.29044558912813867  1.0000
  C   C3103     1.0  0.29650583779610995  0.0980258241539509  0.30617136983904525  1.0000
  C   C3104     1.0  0.30672907338215627  0.08256754780675206  0.3167532035884403  1.0000
  C   C3105     1.0  0.2734825091710562  0.10509463292274059  0.31066211718639647  1.0000
  C   C3106     1.0  0.29430474205805124  0.07424958922722653  0.3313195549842126  1.0000
  C   C3107     1.0  0.2608279813977269  0.09671131752775662  0.3250978286593368  1.0000
  C   C3108     1.0  0.2711871997854701  0.08133567929821658  0.3355490224858998  1.0000
  N   N856      1.0  0.352549398717396  0.15380510690168098  0.285138342263087  1.0000
  C   C3109     1.0  0.368862715809561  0.16071253159706006  0.27071896078050084  1.0000
  C   C3110     1.0  0.3951898098648011  0.1534262505638446  0.27507906820502004  1.0000
  O   O896      1.0  0.40500308090065795  0.1529802577992572  0.2936625972278776  1.0000
  C   C3111     1.0  0.3710107954130355  0.18637949876640164  0.2738869789091777  1.0000
  C   C3112     1.0  0.34770848479352523  0.19560667170018492  0.26423595460996097  1.0000
  C   C3113     1.0  0.34911422688314586  0.2214606594538089  0.2731847893239555  1.0000
  C   C3114     1.0  0.344530658054493  0.18915863379769687  0.23921840938762562  1.0000
  N   N857      1.0  0.4068547120989232  0.1481214430432941  0.257638638506943  1.0000
  C   C3115     1.0  0.4319794383784197  0.1407604793894771  0.2596472273204856  1.0000
  C   C3116     1.0  0.4507799464075293  0.1595943809518839  0.27455650851369195  1.0000
  O   O897      1.0  0.46996467040088574  0.1550926257076749  0.2848933924077771  1.0000
  C   C3117     1.0  0.43949480257923645  0.13312157330092209  0.23678524082487895  1.0000
  C   C3118     1.0  0.44278562058540727  0.1532125468771898  0.22631771700796188  1.0000
  C   C3119     1.0  0.4629344286312139  0.1209258182603821  0.2376017403425792  1.0000
  N   N858      1.0  0.44554843277372636  0.18094205053273793  0.2760262076455524  1.0000
  C   C3120     1.0  0.46176445249353393  0.200192991959821  0.2903639391763686  1.0000
  C   C3121     1.0  0.45918644208922155  0.203001745769671  0.3144343449581717  1.0000
  O   O898      1.0  0.4735659360332386  0.21741559290298818  0.32829850676872163  1.0000
  C   C3122     1.0  0.4558073067125421  0.22196190280424064  0.2835380032083946  1.0000
  O   O899      1.0  0.429049727256578  0.2225474877041667  0.28040264506042567  1.0000
  C   C3123     1.0  0.46584354598735445  0.22302896137693706  0.2622926857578345  1.0000
  N   N859      1.0  0.4414730174834699  0.18993198604358832  0.31987223174605517  1.0000
  C   C3124     1.0  0.4386403561925575  0.19111313341648042  0.34255458834776786  1.0000
  C   C3125     1.0  0.44923983819442626  0.171441840439264  0.35034399374662817  1.0000
  O   O900      1.0  0.44772805462069143  0.16954004077772566  0.3690908226730256  1.0000
  C   C3126     1.0  0.41058439470478547  0.191856072348599  0.3454776566211346  1.0000
  C   C3127     1.0  0.4065529401260005  0.19543789794213615  0.3694827424415218  1.0000
  O   O901      1.0  0.4212563240962689  0.20863259494055722  0.38406542382764797  1.0000
  N   N860      1.0  0.38695195137213556  0.1833429330361304  0.37348359007825294  1.0000
  N   N861      1.0  0.46023393067827834  0.15707753430550495  0.336414511974662  1.0000
  C   C3128     1.0  0.4669124139617826  0.13530775274641027  0.339664180055109  1.0000
  C   C3129     1.0  0.4950148782825373  0.137375770649388  0.34858035478839566  1.0000
  O   O902      1.0  0.510395454332004  0.15058821054590563  0.3435180577786542  1.0000
  C   C3130     1.0  0.46017194488965407  0.11734685668272468  0.3178799729228666  1.0000
  C   C3131     1.0  0.46596065595256164  0.09326510632102955  0.3177819929807426  1.0000
  S   S43       1.0  0.458140624702694  0.07467726350527762  0.2902332992535366  1.0000
  C   C3132     1.0  0.47497376928930923  0.09048831726673003  0.27604253763590647  1.0000
  N   N862      1.0  0.501458955063882  0.1248784730343956  0.36267313646390176  1.0000
  C   C3133     1.0  0.527804468814443  0.12515971285941568  0.37240581071488854  1.0000
  C   C3134     1.0  0.532306956132917  0.10137901018234456  0.3745776994319713  1.0000
  O   O903      1.0  0.5153729379692734  0.08864014075422928  0.3781049773484363  1.0000
  C   C3135     1.0  0.5340105225647163  0.14183442713126093  0.3953004571912032  1.0000
  C   C3136     1.0  0.5360316414125024  0.16647707277614238  0.39355314822332477  1.0000
  C   C3137     1.0  0.5142057986854836  0.1373942127200604  0.40952387878954144  1.0000
  N   N863      1.0  0.5556813835574572  0.0954676679481212  0.3732223102325889  1.0000
  C   C3138     1.0  0.5610005025925477  0.07223827780480045  0.373973489788873  1.0000
  C   C3139     1.0  0.5606471939574429  0.06828060754463837  0.3966885063712937  1.0000
  O   O904      1.0  0.5720114436068715  0.08215238706630888  0.4129368467735284  1.0000
  C   C3140     1.0  0.5875041511257679  0.07080382513679274  0.3674741536279791  1.0000
  C   C3141     1.0  0.5947255488461268  0.09306270274196518  0.3616933370426615  1.0000
  C   C3142     1.0  0.5784936103180517  0.10974451609136762  0.3721118708885165  1.0000
  N   N864      1.0  0.5476167226623714  0.04918570213435144  0.397798945715366  1.0000
  C   C3143     1.0  0.545362259570535  0.04399633472332508  0.41873399334920014  1.0000
  C   C3144     1.0  0.5456225900507266  0.018756151934174337  0.4170846643234457  1.0000
  O   O905      1.0  0.5304921506346653  0.004876626270632244  0.40325316249360366  1.0000
  C   C3145     1.0  0.5210894608418964  0.05171075614964217  0.4270132984586805  1.0000
  C   C3146     1.0  0.5224434571382812  0.07719891987963377  0.43594580318232123  1.0000
  S   S44       1.0  0.49561028155057685  0.08558401470148234  0.449173095369065  1.0000
  C   C3147     1.0  0.5058392059428749  0.11529938362501314  0.4590364095428838  1.0000
  N   N865      1.0  0.5623451001584985  0.01291331154677749  0.4315530357770938  1.0000
  C   C3148     1.0  0.5604667798537963  0.989735508365765  0.43416583423373467  1.0000
  C   C3149     1.0  0.5350306440351928  0.9833881558280043  0.44058352044285853  1.0000
  O   O906      1.0  0.5247818342612021  0.9974824178433829  0.45283101320836217  1.0000
  C   C3150     1.0  0.5810821402852213  0.9868754053547143  0.4517695638353517  1.0000
  C   C3151     1.0  0.6075180483571876  0.9896666923939459  0.4466582768545483  1.0000
  C   C3152     1.0  0.6160214662487052  0.9735989219545522  0.43063855631726966  1.0000
  C   C3153     1.0  0.6243236794479603  0.008066867561100954  0.45836687993836966  1.0000
  C   C3154     1.0  0.6407701062506345  0.9760133367344155  0.4263927588252284  1.0000
  C   C3155     1.0  0.6488870833861973  0.010521659301457808  0.45434970231128446  1.0000
  C   C3156     1.0  0.6570181695277946  0.9944250597307173  0.4383463117643599  1.0000
  O   O907      1.0  0.681487550037179  0.9971055884695393  0.43444344406975266  1.0000
  N   N866      1.0  0.5249094157576806  0.9619610836354915  0.4331043848607242  1.0000
  C   C3157     1.0  0.502318132599842  0.9535737239041144  0.4411060801341866  1.0000
  C   C3158     1.0  0.5041281192394228  0.9584234840944023  0.46584601552050386  1.0000
  O   O908      1.0  0.4858267844382578  0.965001393503482  0.47471320028272845  1.0000
  C   C3159     1.0  0.5000037115494397  0.9280653954884296  0.4307691962401017  1.0000
  C   C3160     1.0  0.5104460388582264  0.9267478818946063  0.40958919875095745  1.0000
  C   C3161     1.0  0.5321664826667146  0.9451890763829871  0.41491277560636297  1.0000
  N   N867      1.0  0.52556135274382  0.9551674860924328  0.47742397868149333  1.0000
  C   C3162     1.0  0.5282436509742614  0.9599418071244156  0.5013310845597563  1.0000
  C   C3163     1.0  0.5261033500923574  0.9848348507941521  0.5112433887046371  1.0000
  O   O909      1.0  0.515435860018878  0.9905218453367532  0.5274427391358099  1.0000
  C   C3164     1.0  0.5535725204647962  0.9534658678015272  0.510671839042247  1.0000
  N   N868      1.0  0.5363734923913168  0.9999030322113502  0.5018046542800224  1.0000
  C   C3165     1.0  0.5339272570518693  0.023878277964214722  0.5094797497464046  1.0000
  C   C3166     1.0  0.507231711883982  0.02951385690217887  0.5032416934311748  1.0000
  O   O910      1.0  0.4992505729712051  0.04609855333217574  0.5144603968043762  1.0000
  C   C3167     1.0  0.5526447707922362  0.0380405804149516  0.500498255051702  1.0000
  C   C3168     1.0  0.5528221281913976  0.06283362378178982  0.5095450697078208  1.0000
  C   C3169     1.0  0.5660528240644453  0.07315657005821703  0.5299738876406805  1.0000
  C   C3170     1.0  0.5387401131335796  0.07573791221254404  0.49801609651789336  1.0000
  C   C3171     1.0  0.5659372311328699  0.09618710625346594  0.5386777724993652  1.0000
  C   C3172     1.0  0.5386095035104599  0.09860442830358962  0.5065893414537458  1.0000
  C   C3173     1.0  0.5522361458474776  0.10873410663409505  0.5270344893769597  1.0000
  N   N869      1.0  0.4931232042939875  0.016259374795274416  0.4855073239067257  1.0000
  C   C3174     1.0  0.46736370829136953  0.021303392711140814  0.4791386276686638  1.0000
  C   C3175     1.0  0.45032740747093614  0.01841312355458958  0.4958931977718727  1.0000
  O   O911      1.0  0.4329240815515226  0.030576442836518218  0.49878360606453154  1.0000
  C   C3176     1.0  0.45632388631753174  0.006510351412655114  0.45660324098013716  1.0000
  C   C3177     1.0  0.46861150731334456  0.013179201855375768  0.4383789717450678  1.0000
  C   C3178     1.0  0.45940798906577973  0.9968468781215375  0.4163988047285775  1.0000
  C   C3179     1.0  0.43095103850571503  0.9963351670118199  0.40931158891493946  1.0000
  N   N870      1.0  0.42477388836643293  0.9874511317465825  0.38501256326818034  1.0000
  N   N871      1.0  0.45481954605331554  0.002451948014230531  0.5068996112704718  1.0000
  C   C3180     1.0  0.44094787953563697  0.00017060206501662403  0.5247809507081072  1.0000
  C   C3181     1.0  0.44346827090824525  0.02239294239448495  0.5419437705701662  1.0000
  O   O912      1.0  0.42508530883348505  0.029198682353887225  0.5502720656507085  1.0000
  C   C3182     1.0  0.4508890578633338  0.9820106331064808  0.5356077343128123  1.0000
  C   C3183     1.0  0.44419064697220156  0.957850122493859  0.5228866718270426  1.0000
  C   C3184     1.0  0.45317300757990575  0.9421616651001877  0.5373060533096288  1.0000
  N   N872      1.0  0.43844537709121134  0.9419033352806148  0.5550567528244319  1.0000
  C   C3185     1.0  0.4456864424353424  0.933486875178423  0.572137922734721  1.0000
  N   N873      1.0  0.46768898416321825  0.9248646287046911  0.5739015616929535  1.0000
  N   N874      1.0  0.43093560164573497  0.933553202590353  0.5873574737446534  1.0000
  N   N875      1.0  0.46641532873522773  0.03367573368618147  0.5476429372037137  1.0000
  C   C3186     1.0  0.4711436475115923  0.05528894145312674  0.5637443076927625  1.0000
  C   C3187     1.0  0.4587864323838855  0.07346802832142718  0.5546485030655819  1.0000
  O   O913      1.0  0.44436980563110806  0.0853983973503619  0.5648057570657729  1.0000
  C   C3188     1.0  0.49980653461849833  0.06161065748001564  0.5704559337282584  1.0000
  C   C3189     1.0  0.5056130096657785  0.08541362309821952  0.585708144718899  1.0000
  C   C3190     1.0  0.5113827375820219  0.04358901982212199  0.5804498878249094  1.0000
  N   N876      1.0  0.4641053046652045  0.07569694988759  0.5351668245732542  1.0000
  C   C3191     1.0  0.4557288383836322  0.09425872337135174  0.5259567100135955  1.0000
  C   C3192     1.0  0.42694437246060746  0.09262982750934727  0.5211230328688101  1.0000
  O   O914      1.0  0.41584988446938687  0.1098156820060527  0.5256301102065154  1.0000
  C   C3193     1.0  0.4674935159244711  0.09436630334646086  0.5052176222640095  1.0000
  C   C3194     1.0  0.46485827514930966  0.11540005469456555  0.4968893271834669  1.0000
  C   C3195     1.0  0.4505799185515744  0.11701887780531604  0.47793020838246747  1.0000
  C   C3196     1.0  0.47672375106093234  0.13784170389602396  0.5071935510968439  1.0000
  N   N877      1.0  0.45306900775062886  0.13899502150881846  0.4757093296943228  1.0000
  C   C3197     1.0  0.46898287214775036  0.15207694753801235  0.49341103923806395  1.0000
  C   C3198     1.0  0.49335839006254234  0.14717772704677765  0.5264302797338616  1.0000
  C   C3199     1.0  0.47717291476312784  0.1751027637422039  0.4984570062574514  1.0000
  C   C3200     1.0  0.5014268517622198  0.17017492347480798  0.531427256782187  1.0000
  C   C3201     1.0  0.4931092994628804  0.18383889925253827  0.517595754952345  1.0000
  N   N878      1.0  0.41446629400035906  0.07205859369032676  0.5121252081837534  1.0000
  C   C3202     1.0  0.3869721109715065  0.06910096464109178  0.5075691408749861  1.0000
  C   C3203     1.0  0.37542393394665063  0.07532833765867891  0.5283245586149261  1.0000
  O   O915      1.0  0.35543357446253776  0.08412175560686062  0.5283082286245722  1.0000
  C   C3204     1.0  0.3771238285296509  0.044679107649675365  0.4955829279551466  1.0000
  N   N879      1.0  0.3871766343542695  0.07013299412548095  0.5459936081779593  1.0000
  C   C3205     1.0  0.37764631257341086  0.07602743088235059  0.5667326959275454  1.0000
  C   C3206     1.0  0.3807429493917769  0.10160145394082602  0.5758121705643721  1.0000
  O   O916      1.0  0.36328065959518274  0.11144391632413983  0.5832586461657983  1.0000
  C   C3207     1.0  0.3912124000619517  0.06416453592307107  0.5829810363297802  1.0000
  C   C3208     1.0  0.3790561246331303  0.06624629508884916  0.60300160450379  1.0000
  C   C3209     1.0  0.3552678011177456  0.05520320570877895  0.6020381350729036  1.0000
  C   C3210     1.0  0.3906746728487558  0.08007388166757597  0.6227772228224897  1.0000
  C   C3211     1.0  0.34361208059036097  0.05736835952991945  0.620409374221159  1.0000
  C   C3212     1.0  0.3792230718980407  0.0823782850931407  0.6413117618742852  1.0000
  C   C3213     1.0  0.35574726290143943  0.07096209184704509  0.6400380226266729  1.0000
  O   O917      1.0  0.34417037405953044  0.07309008991851697  0.6584582517459903  1.0000
  N   N880      1.0  0.4031680569651044  0.11251186461026853  0.5758448305450801  1.0000
  C   C3214     1.0  0.40734713284900637  0.1371608099094788  0.582393156677036  1.0000
  C   C3215     1.0  0.3880967140553958  0.1479283596436504  0.5692801744227701  1.0000
  O   O918      1.0  0.37609089017558317  0.16269364717706758  0.5786699188763229  1.0000
  C   C3216     1.0  0.43428609688923114  0.1451192774136329  0.5799436581239352  1.0000
  C   C3217     1.0  0.43819604423438174  0.1696915417185986  0.5796333883072091  1.0000
  C   C3218     1.0  0.4371113739244966  0.1865857266285126  0.5981842573493585  1.0000
  C   C3219     1.0  0.4433947149260896  0.17584824804605534  0.5608702293904577  1.0000
  C   C3220     1.0  0.440721864009876  0.2090945978433437  0.5977760075905084  1.0000
  C   C3221     1.0  0.44728530136912903  0.19860419619312003  0.5603313397087755  1.0000
  C   C3222     1.0  0.445995572619728  0.2151697128290702  0.5788168887895089  1.0000
  N   N881      1.0  0.38452380293719157  0.1404422160683771  0.5474959672905277  1.0000
  C   C3223     1.0  0.3679729551703904  0.15120801007802365  0.5336481354703317  1.0000
  C   C3224     1.0  0.340132896087206  0.14586320142182604  0.5351015046118381  1.0000
  O   O919      1.0  0.3255716468798061  0.16071077024681266  0.5354934243803342  1.0000
  C   C3225     1.0  0.3725707469912838  0.14386333813117816  0.5100512994087948  1.0000
  C   C3226     1.0  0.3982106840456796  0.15281283498168094  0.5062300816659577  1.0000
  C   C3227     1.0  0.3989893418459264  0.15292983594014728  0.4825515956526507  1.0000
  O   O920      1.0  0.3931500789915441  0.13552060923630155  0.46821386412183463  1.0000
  N   N882      1.0  0.4060348920630046  0.17271304817067318  0.47832212815096353  1.0000
  N   N883      1.0  0.3322528832073208  0.12482896477548558  0.5358853441488304  1.0000
  C   C3228     1.0  0.30545316997820393  0.11837974203332989  0.5356077343128123  1.0000
  C   C3229     1.0  0.29779118595244713  0.12543989106004816  0.5581921109724008  1.0000
  O   O921      1.0  0.27691459757524084  0.13231464205128038  0.5603803296798375  1.0000
  C   C3230     1.0  0.29903241703775185  0.09271944093599911  0.5265119296856315  1.0000
  C   C3231     1.0  0.2712671543589854  0.084422061048956  0.5256791001775774  1.0000
  C   C3232     1.0  0.266090751074751  0.05897636783131529  0.5163220157047326  1.0000
  N   N884      1.0  0.28030141737064296  0.04619350052026712  0.5297289377853707  1.0000
  C   C3233     1.0  0.27298932160037503  0.04112949868354322  0.5474633073098197  1.0000
  N   N885      1.0  0.2516842476705031  0.0479122714567986  0.5539789734610676  1.0000
  N   N886      1.0  0.28693492132641363  0.029294899968267837  0.5587310006540831  1.0000
  N   N887      1.0  0.3143417471701623  0.12408639207662094  0.5751753009405658  1.0000
  C   C3234     1.0  0.3077620480904749  0.12692276647581074  0.5970411580245782  1.0000
  C   C3235     1.0  0.3193894165242812  0.14958788306262374  0.6120157591792006  1.0000
  O   O922      1.0  0.3060850292419838  0.16264518135935985  0.6220097132758515  1.0000
  C   C3236     1.0  0.3153301732946885  0.10697782275294956  0.6068391522369811  1.0000
  C   C3237     1.0  0.30858958483547927  0.10997976362568204  0.6296358187711717  1.0000
  C   C3238     1.0  0.30242926158395467  0.08477292549176019  0.5919298710437747  1.0000
  N   N888      1.0  0.34425385942952547  0.15471355890808475  0.613518118291769  1.0000
  C   C3239     1.0  0.3575189004428634  0.17311966260830433  0.6310728579223241  1.0000
  C   C3240     1.0  0.3540509334340194  0.19648421043054914  0.6266311005460349  1.0000
  O   O923      1.0  0.3517647156175586  0.21262026865800127  0.6418669815463214  1.0000
  C   C3241     1.0  0.3854789533281955  0.16932438049638462  0.6351880154915334  1.0000
  C   C3242     1.0  0.39091928555742894  0.14857962941034653  0.6444144600415461  1.0000
  C   C3243     1.0  0.41866891378383697  0.1457298942767852  0.6472395483727889  1.0000
  C   C3244     1.0  0.3815090546376084  0.15018250334503994  0.6663456370869745  1.0000
  N   N889      1.0  0.35332596712642583  0.19894221867814876  0.6062186126035289  1.0000
  C   C3245     1.0  0.34985179771358443  0.22118046529814933  0.6017441952465316  1.0000
  C   C3246     1.0  0.3249478370587463  0.2291021338787242  0.6082108714267175  1.0000
  O   O924      1.0  0.3242336434268761  0.24832513118431027  0.6197235146262909  1.0000
  C   C3247     1.0  0.35158931579803376  0.22080092860206643  0.5777880993972067  1.0000
  C   C3248     1.0  0.3430018330058332  0.24283134759135924  0.5727421323778191  1.0000
  C   C3249     1.0  0.3792505865574014  0.2181236829583514  0.5729707522427752  1.0000
  N   N890      1.0  0.3042127673315208  0.21447366457054204  0.6010256756709554  1.0000
  C   C3250     1.0  0.28011714121093534  0.22027624687799893  0.6080965614942395  1.0000
  C   C3251     1.0  0.2823977679234908  0.22653570353169034  0.6329508068130347  1.0000
  O   O925      1.0  0.27314086377705793  0.2433233791291913  0.6424058712280035  1.0000
  C   C3252     1.0  0.259286566809141  0.20067792368238385  0.5982495773107745  1.0000
  C   C3253     1.0  0.23543623471952924  0.20199843013308932  0.6095172706550379  1.0000
  C   C3254     1.0  0.22203388957821302  0.2230744283431842  0.6072474019958313  1.0000
  C   C3255     1.0  0.1985376342688281  0.2242796182685016  0.6185804153015105  1.0000
  N   N891      1.0  0.18574214998722272  0.24436191310394062  0.6159512868545157  1.0000
  N   N892      1.0  0.29549322057021354  0.21378535286229278  0.6439082303405719  1.0000
  C   C3256     1.0  0.29869580345249924  0.21891759000995772  0.6677336862670649  1.0000
  C   C3257     1.0  0.31199542555963955  0.24260960226774145  0.6778419502961939  1.0000
  O   O926      1.0  0.3034379979563693  0.2557549676217901  0.6924246316823202  1.0000
  C   C3258     1.0  0.31333253078802137  0.20127939550522891  0.6760946413283153  1.0000
  C   C3259     1.0  0.31834268957595135  0.20522516092572704  0.7007039367918005  1.0000
  C   C3260     1.0  0.3317567341648786  0.18572697120873913  0.7070726330298625  1.0000
  C   C3261     1.0  0.3370972747412523  0.18819341536362144  0.7314859686090995  1.0000
  N   N893      1.0  0.35937613824915193  0.2048500395028734  0.7420678023584946  1.0000
  N   N894      1.0  0.333122126232945  0.24838861791384417  0.6704607946561837  1.0000
  C   C3262     1.0  0.3469889810831479  0.270763991996062  0.6796382492351344  1.0000
  C   C3263     1.0  0.330786562149764  0.28927311744641193  0.6753108017913232  1.0000
  O   O927      1.0  0.32916210679893043  0.305990026287558  0.6901710930134675  1.0000
  C   C3264     1.0  0.37195864392698175  0.2722036262510232  0.6704118046851217  1.0000
  C   C3265     1.0  0.38901147178335216  0.2541543014159254  0.6749352120131811  1.0000
  C   C3266     1.0  0.3873598632137989  0.24476087205876024  0.6928492114315242  1.0000
  C   C3267     1.0  0.4062309239910551  0.24639980756251456  0.6612016901254629  1.0000
  C   C3268     1.0  0.40255134986376184  0.2283362702771274  0.6970950089235655  1.0000
  C   C3269     1.0  0.4216269837481902  0.2297210583614409  0.6652188677525481  1.0000
  C   C3270     1.0  0.41982260718106623  0.2209932921705249  0.6832308471130154  1.0000
  O   O928      1.0  0.4349693099264357  0.20474593316372788  0.6873296746918707  1.0000
  N   N895      1.0  0.3180780300733089  0.2862956901291658  0.6551269337137733  1.0000
  C   C3271     1.0  0.30153513773557705  0.3029662411840642  0.6498196868487216  1.0000
  C   C3272     1.0  0.28108148077553474  0.3060725122307309  0.664435028215556  1.0000
  O   O929      1.0  0.27487802122830707  0.32513208420373857  0.6717835238748581  1.0000
  C   C3273     1.0  0.2892510840476763  0.29591048861624597  0.6258635909993966  1.0000
  N   N896      1.0  0.27047532370631255  0.2874397436366712  0.6688604556014912  1.0000
  C   C3274     1.0  0.25128049495942717  0.2886066834472843  0.6831491971612454  1.0000
  C   C3275     1.0  0.2619565036086423  0.2995113510520805  0.7067786932034903  1.0000
  O   O930      1.0  0.24770728969231448  0.30836344544853495  0.7192384758435959  1.0000
  C   C3276     1.0  0.238629080874191  0.2648876643705429  0.6814672081547829  1.0000
  O   O931      1.0  0.23548342916824072  0.25224709670150086  0.6594543811575845  1.0000
  N   N897      1.0  0.2865281804611397  0.29925635191672184  0.7132290393933223  1.0000
  C   C3277     1.0  0.29755776539139644  0.30890183025346035  0.7359603859660968  1.0000
  C   C3278     1.0  0.30683463535429656  0.33370245799609155  0.740075543535306  1.0000
  O   O932      1.0  0.308678257671677  0.3461196391628183  0.7586754025485174  1.0000
  C   C3279     1.0  0.31978941265676264  0.29638655668284614  0.7428353119051329  1.0000
  C   C3280     1.0  0.3123249443403664  0.2727479061106528  0.7455787502846056  1.0000
  C   C3281     1.0  0.3351583358201272  0.25998581255209785  0.7499388577091248  1.0000
  O   O933      1.0  0.35582509268196216  0.2664599009722468  0.7450235306125694  1.0000
  O   O934      1.0  0.33259962105428553  0.243367557408104  0.7581691728475434  1.0000
  N   N898      1.0  0.31312365222092564  0.3411030373691163  0.723141343538203  1.0000
  C   C3282     1.0  0.32722245124852456  0.36315682795975246  0.726195051734402  1.0000
  C   C3283     1.0  0.31191454327285806  0.37893929523897574  0.715792847878901  1.0000
  O   O935      1.0  0.3225304309848438  0.39696765126156963  0.7139638889592524  1.0000
  C   C3284     1.0  0.35236754202571086  0.3604353227852294  0.7172298870300533  1.0000
  C   C3285     1.0  0.37096542781674613  0.34922596268660233  0.7309470789274174  1.0000
  C   C3286     1.0  0.3922197449164868  0.33960485513802874  0.7185689462390817  1.0000
  N   N899      1.0  0.40816598335652043  0.35754074764440996  0.7135229792196942  1.0000
  C   C3287     1.0  0.43112695809867474  0.3552882404181357  0.7082973823064127  1.0000
  N   N900      1.0  0.44070147654994596  0.33568111000954554  0.7076115227115445  1.0000
  N   N901      1.0  0.44454218632065834  0.3725561668512249  0.7038719549204775  1.0000
  N   N902      1.0  0.2870911904710801  0.37295695789445443  0.7096527715057952  1.0000
  C   C3288     1.0  0.2709010753409018  0.38590329812718815  0.6978298584894957  1.0000
  C   C3289     1.0  0.2807172864923887  0.3872334588032042  0.6765845410389355  1.0000
  O   O936      1.0  0.2860766507522686  0.4055004033736314  0.6721427836626461  1.0000
  C   C3290     1.0  0.2693289849442222  0.40941299549657173  0.712232909981728  1.0000
  C   C3291     1.0  0.246413497571626  0.42067230100995345  0.7047374444092398  1.0000
  O   O937      1.0  0.23285668086760059  0.4129681522829115  0.6868397749812505  1.0000
  N   N903      1.0  0.24209553622061908  0.4392624753230981  0.7187322461426218  1.0000
  N   N904      1.0  0.28336353388998037  0.3674440088026316  0.6635205487557316  1.0000
  C   C3292     1.0  0.2927872646807387  0.36513839683505966  0.6427977909964997  1.0000
  C   C3293     1.0  0.3213804347055398  0.3662398799484177  0.6454432494338485  1.0000
  O   O938      1.0  0.33489566095307133  0.3765040878922902  0.6623937794213053  1.0000
  N   N905      1.0  0.3308748431813482  0.35548767032350326  0.6281171296682493  1.0000
  C   C3294     1.0  0.3580169365332383  0.3571046948242039  0.6276762199286912  1.0000
  C   C3295     1.0  0.3632896398574028  0.35898533061322746  0.6052714731629967  1.0000
  O   O939      1.0  0.34894544004746786  0.3489754794439816  0.5884842430790798  1.0000
  C   C3296     1.0  0.3709052897182302  0.3368590412440508  0.633816296301797  1.0000
  C   C3297     1.0  0.36963402048845395  0.3362401878683528  0.657592762257228  1.0000
  C   C3298     1.0  0.3599697750203996  0.31451292929872643  0.6180741856005363  1.0000
  N   N906      1.0  0.38441472512390085  0.37192281604387895  0.6051898232112266  1.0000
  C   C3299     1.0  0.3955682098640404  0.3714431838666833  0.5855285148250049  1.0000
  C   C3300     1.0  0.4168855415699648  0.35640878951742505  0.585708144718899  1.0000
  O   O940      1.0  0.4325184568779922  0.3588918203210863  0.6023810648703378  1.0000
  C   C3301     1.0  0.40562106221574945  0.39516693722965684  0.5844507354616406  1.0000
  C   C3302     1.0  0.4188233151294558  0.394826135946514  0.565083366901791  1.0000
  O   O941      1.0  0.4421550922970333  0.3963531948980557  0.5670592957346254  1.0000
  N   N907      1.0  0.4040847385074202  0.39280316270239785  0.5459609481972514  1.0000
  N   N908      1.0  0.41702774837191037  0.34068128277024906  0.5674185555224136  1.0000
  C   C3303     1.0  0.4346919218364973  0.3235378511967874  0.5650670369114369  1.0000
  C   C3304     1.0  0.45000876288981095  0.32663691387693566  0.5473000074062797  1.0000
  O   O942      1.0  0.4392711661120827  0.3289379249184321  0.5296962778046626  1.0000
  C   C3305     1.0  0.42054246353297375  0.2995411370380082  0.5589596205190391  1.0000
  C   C3306     1.0  0.43880479640792924  0.2814783135892279  0.5561508621781504  1.0000
  C   C3307     1.0  0.40334571602304803  0.29698723470818517  0.5759428104872041  1.0000
  N   N909      1.0  0.4748614627322886  0.325965550531565  0.551545804898321  1.0000
  C   C3308     1.0  0.49131057102747244  0.3253569128588704  0.5349382047082981  1.0000
  C   C3309     1.0  0.5060435506040983  0.3050006437456293  0.5345462849398019  1.0000
  O   O943      1.0  0.5193987106586395  0.3032902754224484  0.5512845250526568  1.0000
  C   C3310     1.0  0.5094206564003212  0.34708617469014996  0.5392003321906933  1.0000
  C   C3311     1.0  0.4945652467342495  0.367610731894348  0.5396739019109595  1.0000
  C   C3312     1.0  0.5265677774445845  0.3449879240538073  0.5217599024926163  1.0000
  C   C3313     1.0  0.5109174699933219  0.39034067240927656  0.5498148259207964  1.0000
  N   N910      1.0  0.5034472823285492  0.28957163912691647  0.5154728562063244  1.0000
  C   C3314     1.0  0.5139608083545157  0.2679768117307896  0.5128763877400377  1.0000
  C   C3315     1.0  0.5298705416702562  0.265425540728177  0.4944071686496583  1.0000
  O   O944      1.0  0.52427458603475  0.2737959712798608  0.4788610178326457  1.0000
  C   C3316     1.0  0.49287840017897877  0.24855772968365317  0.507389510981092  1.0000
  O   O945      1.0  0.4809771721167345  0.2474503417395702  0.5258260700907634  1.0000
  N   N911      1.0  0.5497972134169042  0.25398348261726655  0.49607282766576666  1.0000
  C   C3317     1.0  0.5648534947961302  0.2496571907210287  0.47859973798698163  1.0000
  C   C3318     1.0  0.5849394884090642  0.2341959168133655  0.4824209557298187  1.0000
  O   O946      1.0  0.5878732639327349  0.22689483814982844  0.49909387588125764  1.0000
  N   N912      1.0  0.5991897555626544  0.22890959913702252  0.4669074648935142  1.0000
  C   C3319     1.0  0.6190447412270899  0.2139724834732484  0.4688017437745787  1.0000
  C   C3320     1.0  0.6444365048436116  0.22685772528568462  0.479889807224948  1.0000
  O   O947      1.0  0.6494607263046094  0.2471221922422024  0.48070630674264825  1.0000
  C   C3321     1.0  0.6201615260677995  0.20265370697637597  0.44482931793489977  1.0000
  C   C3322     1.0  0.615677961639244  0.22217186631904634  0.43351263461957446  1.0000
  C   C3323     1.0  0.5972547615219763  0.23610022403355016  0.44621736711499016  1.0000
  N   N913      1.0  0.6605641359862631  0.21433315920385945  0.4883814022090305  1.0000
  C   C3324     1.0  0.686814303380884  0.22238612189180132  0.49749353682656516  1.0000
  C   C3325     1.0  0.7034892080110393  0.20473503784018995  0.4880711323923044  1.0000
  O   O948      1.0  0.6973969993926563  0.1843506961333055  0.48617685351123985  1.0000
  C   C3326     1.0  0.6912710302439367  0.22751802121213416  0.5227070419331485  1.0000
  C   C3327     1.0  0.6827517011227116  0.2507559663277194  0.5321131163770552  1.0000
  C   C3328     1.0  0.7194432103448969  0.22585306866907903  0.5316885366278511  1.0000
  C   C3329     1.0  0.6794300890405041  0.2549131184170824  0.5561835221588582  1.0000
  N   N914      1.0  0.7248003577098155  0.21276891120871702  0.48261691561406683  1.0000
  C   C3330     1.0  0.7442489453621319  0.1990023039853058  0.4745988903502505  1.0000
  C   C3331     1.0  0.7687737541277802  0.20747831595402771  0.490243021109387  1.0000
  O   O949      1.0  0.7798282296635985  0.2262865573032232  0.4913534604534594  1.0000
  C   C3332     1.0  0.7476348960765093  0.20048674025001073  0.4513939740572097  1.0000
  C   C3333     1.0  0.7237625023902332  0.19566553795160216  0.43570085332701114  1.0000
  C   C3334     1.0  0.7090439493949694  0.21309266931962312  0.4329084249764763  1.0000
  C   C3335     1.0  0.7156710395772099  0.1736491743501023  0.42353501051327747  1.0000
  C   C3336     1.0  0.6864970472671099  0.20845690794222543  0.418358403571058  1.0000
  C   C3337     1.0  0.6931073189834778  0.16893140292060302  0.4089196691464433  1.0000
  C   C3338     1.0  0.6784734716940193  0.1862430084080502  0.40625788071874047  1.0000
  N   N915      1.0  0.7775380808609511  0.193774929108693  0.5022618940099346  1.0000
  C   C3339     1.0  0.801278428043276  0.1998979196596565  0.5171058552417249  1.0000
  C   C3340     1.0  0.8144478723435591  0.17840618530510674  0.5169752153188929  1.0000
  O   O950      1.0  0.8167534189455631  0.16959499116489626  0.5327989759719235  1.0000
  C   C3341     1.0  0.7974728626089391  0.21170888494128537  0.5401474716312256  1.0000
  C   C3342     1.0  0.8223584815088368  0.221117430572919  0.5547138230269979  1.0000
  O   O951      1.0  0.8412806652892091  0.2250804678884528  0.5457159983419413  1.0000
  O   O952      1.0  0.823096691667226  0.2245836969919502  0.5750120010370259  1.0000
  N   N916      1.0  0.823523274450004  0.17002097630628668  0.4986529661416995  1.0000
  C   C3343     1.0  0.8346279184294909  0.14868197117108642  0.49576255784904066  1.0000
  C   C3344     1.0  0.8605892611150572  0.15119513482631605  0.5094470897656966  1.0000
  O   O953      1.0  0.8681736768785395  0.1347475991524685  0.5157178060616345  1.0000
  C   C3345     1.0  0.8356667735607318  0.13893858608330661  0.4715125221733436  1.0000
  C   C3346     1.0  0.8104802586414527  0.1258089889560511  0.4597059391473981  1.0000
  C   C3347     1.0  0.7913020661062371  0.13672757877291153  0.4507734344237574  1.0000
  C   C3348     1.0  0.805655471893311  0.10275542369037326  0.4581872500444756  1.0000
  C   C3349     1.0  0.7684482550250934  0.12493001692675094  0.44022426065507037  1.0000
  C   C3350     1.0  0.7827690632728423  0.090805389569156  0.44775238620826663  1.0000
  C   C3351     1.0  0.7642529528951323  0.10204047176527643  0.4388362114749801  1.0000
  O   O954      1.0  0.741475614767796  0.09036935556327912  0.42859730752301906  1.0000
  N   N917      1.0  0.874255881430337  0.1713716821964249  0.5146073667175621  1.0000
  C   C3352     1.0  0.898543196289871  0.17563818898417932  0.5289287682580244  1.0000
  C   C3353     1.0  0.8962260348787892  0.18526730432249974  0.5529175240880573  1.0000
  O   O955      1.0  0.9153549624156496  0.19277702415071987  0.5660631663230311  1.0000
  C   C3354     1.0  0.9168454141751051  0.191699107883144  0.5214333026855361  1.0000
  C   C3355     1.0  0.9065893630041182  0.21397881153349907  0.5206984531196059  1.0000
  O   O956      1.0  0.8854125845703364  0.21748293794721293  0.5253361703801434  1.0000
  N   N918      1.0  0.9213064500844681  0.22904058382297915  0.5145420467561461  1.0000
  N   N919      1.0  0.873170556421385  0.18561918243172834  0.558567700750543  1.0000
  C   C3356     1.0  0.8677739828770625  0.19199701505555422  0.5811194174294236  1.0000
  C   C3357     1.0  0.8837613851428289  0.21336620533501235  0.5951142191628056  1.0000
  O   O957      1.0  0.8934117972356866  0.21435384211286468  0.6140406779830971  1.0000
  C   C3358     1.0  0.8702172751568252  0.1722776798590119  0.5923544507929788  1.0000
  C   C3359     1.0  0.8939867724061678  0.16054583165439915  0.5908031017093485  1.0000
  C   C3360     1.0  0.8950710781260713  0.1419084668378463  0.5735749618858734  1.0000
  C   C3361     1.0  0.915215789964432  0.16755281405553774  0.6068881422080431  1.0000
  C   C3362     1.0  0.9166966134392127  0.13087069222045836  0.572235902676845  1.0000
  C   C3363     1.0  0.9369397298038327  0.15659278150349779  0.6056633929314927  1.0000
  C   C3364     1.0  0.937487449579256  0.13829303964478748  0.5882719532044777  1.0000
  O   O958      1.0  0.9588533271842662  0.12734133371106915  0.5870145439472193  1.0000
  N   N920      1.0  0.8866494842664822  0.23079293228783687  0.586034744525979  1.0000
  C   C3365     1.0  0.8995453162187393  0.2523958959458569  0.5989191069152888  1.0000
  C   C3366     1.0  0.8811322404630568  0.2692338690806196  0.6067901622659191  1.0000
  O   O959      1.0  0.8892172861533029  0.28899123544508787  0.6157553269702677  1.0000
  C   C3367     1.0  0.9179579262802975  0.2626199601711889  0.586067404506687  1.0000
  C   C3368     1.0  0.9051007071730643  0.26697257382455547  0.5645444772201087  1.0000
  O   O960      1.0  0.88180162020928  0.26491103163716007  0.5600210698920494  1.0000
  O   O961      1.0  0.9187010256339518  0.27281423896387724  0.5517254347922149  1.0000
  N   N921      1.0  0.856622824119463  0.26205513943216335  0.6032465543591001  1.0000
  C   C3369     1.0  0.8385086263147903  0.2780806297156346  0.6093703007418518  1.0000
  C   C3370     1.0  0.8335342783945565  0.29388586912099396  0.5944283595679375  1.0000
  O   O962      1.0  0.8205272140338233  0.30960591526094117  0.5996539564812191  1.0000
  N   N922      1.0  0.8427286914949403  0.28991720310221336  0.5756815306415399  1.0000
  C   C3371     1.0  0.8413996879344968  0.3054326857078026  0.5613601291010778  1.0000
  C   C3372     1.0  0.828804509194897  0.29286467381357273  0.5385144725958251  1.0000
  O   O963      1.0  0.8329881338137552  0.2733014936988084  0.5305291073127167  1.0000
  C   C3373     1.0  0.8678904128420186  0.31618627523239545  0.5602986797280676  1.0000
  C   C3374     1.0  0.8844279585962511  0.3286677188495451  0.5819359169471239  1.0000
  C   C3375     1.0  0.9092288839841285  0.3395932030923593  0.5772655397058785  1.0000
  C   C3376     1.0  0.8711009799887486  0.34641084770699754  0.5947059694039556  1.0000
  N   N923      1.0  0.8133092342880145  0.3042604740200321  0.5281939186920941  1.0000
  C   C3377     1.0  0.8009994132594903  0.2956911278204225  0.5057565119456916  1.0000
  C   C3378     1.0  0.8192331988110182  0.285408253971089  0.49078191079106914  1.0000
  O   O964      1.0  0.8383035811772009  0.296822529726581  0.48880598195823466  1.0000
  C   C3379     1.0  0.7900011407296395  0.3151364744439879  0.49791811657576923  1.0000
  C   C3380     1.0  0.7772649131185003  0.30856403686008665  0.4745172403984804  1.0000
  C   C3381     1.0  0.7728634872250942  0.32999699958814943  0.4673320446427184  1.0000
  N   N924      1.0  0.7937730885603445  0.33682525002581276  0.45709314069075735  1.0000
  C   C3382     1.0  0.7962021072827846  0.32737830680857105  0.4365500128254194  1.0000
  N   N925      1.0  0.7790808369818631  0.3110060438233677  0.4244658199634558  1.0000
  N   N926      1.0  0.8156493763142821  0.3342293150771955  0.42818905776416893  1.0000
  N   N927      1.0  0.8136102388942048  0.2636901355537596  0.4804776868776922  1.0000
  C   C3383     1.0  0.8285358610198265  0.2524032666317378  0.4645069563114754  1.0000
  C   C3384     1.0  0.8259062444109477  0.26198532482680675  0.44417611832073955  1.0000
  O   O965      1.0  0.8050830903949922  0.2656673506712634  0.435635533365595  1.0000
  C   C3385     1.0  0.8198804846320953  0.22697221398192244  0.4569951607486332  1.0000
  C   C3386     1.0  0.8263644990229674  0.21399184403213098  0.47430495052387833  1.0000
  O   O966      1.0  0.8395285554484385  0.22343862548329402  0.49233325987469967  1.0000
  O   O967      1.0  0.8177310258954817  0.1936743722161121  0.469503933359801  1.0000
  N   N928      1.0  0.8469508954115207  0.2652759187271091  0.4359131432016131  1.0000
  C   C3387     1.0  0.8448758109535648  0.26682851430772603  0.4132471165902546  1.0000
  C   C3388     1.0  0.8368134897856745  0.24336212487143613  0.3981582055031542  1.0000
  O   O968      1.0  0.8371121403589546  0.22604908719162103  0.40511478139396007  1.0000
  C   C3389     1.0  0.8698950740995379  0.27604935899683075  0.40813582960945105  1.0000
  O   O969      1.0  0.8875326917171223  0.25983346985575567  0.41011175844228565  1.0000
  C   C3390     1.0  0.8799172017455661  0.29865003707196736  0.4239759202528356  1.0000
  N   N929      1.0  0.830040683519583  0.24285826937697927  0.37707618795613396  1.0000
  C   C3391     1.0  0.8205095586446938  0.2215395859899685  0.36143205719699734  1.0000
  C   C3392     1.0  0.8403621018000429  0.20501466037328006  0.3597827281712429  1.0000
  O   O970      1.0  0.8338581323036595  0.18439308142789082  0.3549490510264576  1.0000
  C   C3393     1.0  0.8115464926825182  0.2259401942735539  0.3390436404216568  1.0000
  C   C3394     1.0  0.7995422096617115  0.2051858367357403  0.3217665106271198  1.0000
  C   C3395     1.0  0.7721933732315484  0.19836773052520576  0.3237097794792463  1.0000
  O   O971      1.0  0.7569699080280186  0.21302784576036352  0.32486920879438064  1.0000
  O   O972      1.0  0.7658669189889394  0.17820305451640076  0.32382408941172447  1.0000
  N   N930      1.0  0.8645830045707784  0.21374066124807842  0.36412650560540816  1.0000
  C   C3396     1.0  0.884890397885177  0.19911916724888928  0.3624608465892998  1.0000
  C   C3397     1.0  0.8861982610815503  0.18560832510570494  0.37981962633560673  1.0000
  O   O973      1.0  0.8951480269033452  0.16717687513283852  0.37658628824551377  1.0000
  C   C3398     1.0  0.9101881745424738  0.213271487238576  0.3642898055089482  1.0000
  C   C3399     1.0  0.9327459390219766  0.20031654444447072  0.36853560300098953  1.0000
  O   O974      1.0  0.9334710785675472  0.18110802594063136  0.3563534301969019  1.0000
  O   O975      1.0  0.9498795409797359  0.20936830161938996  0.3841144137987099  1.0000
  N   N931      1.0  0.8773823278936677  0.19433458762837835  0.39819086548386207  1.0000
  C   C3400     1.0  0.8805057125671735  0.18394025593720362  0.4167090745453035  1.0000
  C   C3401     1.0  0.8585268593281757  0.16653150023641874  0.4163334847671615  1.0000
  O   O976      1.0  0.8611345395920202  0.1530713410469354  0.42814006779310687  1.0000
  C   C3402     1.0  0.8844592004758263  0.20244953356203962  0.43798705197657184  1.0000
  C   C3403     1.0  0.9077509683106758  0.21863340565487469  0.4395873910312642  1.0000
  C   C3404     1.0  0.9095378358936074  0.2396233731788145  0.45774634030491745  1.0000
  O   O977      1.0  0.8901595522563597  0.24931303975491442  0.46027748880978825  1.0000
  O   O978      1.0  0.9303467759663508  0.24644663708953504  0.46958558331157096  1.0000
  N   N932      1.0  0.8372622814456895  0.1663975939850266  0.4029592226672315  1.0000
  C   C3405     1.0  0.8157617043683258  0.14953433646189912  0.40041174417200676  1.0000
  C   C3406     1.0  0.8228747942040205  0.12648250792198903  0.38937267069269954  1.0000
  O   O979      1.0  0.8315204899065481  0.12366457577789965  0.37201389094639237  1.0000
  C   C3407     1.0  0.7927624445535048  0.1562118370550986  0.38718445198526286  1.0000
  C   C3408     1.0  0.7843326961525189  0.17806083086942365  0.4002647742588208  1.0000
  C   C3409     1.0  0.7715500672297515  0.13748206101502264  0.3808320857375551  1.0000
  C   C3410     1.0  0.7642299313938635  0.18794405092608807  0.38729876191774093  1.0000
  N   N933      1.0  0.8193953897663835  0.10986265881954882  0.3993829547797044  1.0000
  C   C3411     1.0  0.8285930610464376  0.08803218814336353  0.39206711910111025  1.0000
  C   C3412     1.0  0.8077264938784929  0.0689231227599048  0.38220380492729145  1.0000
  O   O980      1.0  0.8134199832079779  0.049776435327298876  0.37510025912329936  1.0000
  C   C3413     1.0  0.8449458605429974  0.08199807818368789  0.4110588978828179  1.0000
  C   C3414     1.0  0.8684075733343796  0.09864077070371094  0.4208568920952207  1.0000
  C   C3415     1.0  0.8826769750621482  0.10402574226163416  0.4030245426286475  1.0000
  C   C3416     1.0  0.910771258713588  0.11073968006431312  0.411777417458394  1.0000
  N   N934      1.0  0.922985090058828  0.12440967955332215  0.3986317752234202  1.0000
  N   N935      1.0  0.7837753352586396  0.07329012474038617  0.3818445451395034  1.0000
  C   C3417     1.0  0.763255167569054  0.055153503680854254  0.373842849866041  1.0000
  C   C3418     1.0  0.7423764553550063  0.06289061164668593  0.3596520882484109  1.0000
  O   O981      1.0  0.7345003835632511  0.08144377297748333  0.3659554645250567  1.0000
  C   C3419     1.0  0.753069240246141  0.047963844677215914  0.3929489385802266  1.0000
  C   C3420     1.0  0.7372608742740183  0.0254148201522518  0.3866455623035807  1.0000
  C   C3421     1.0  0.7423944876313855  0.012007537350123158  0.4037593921945778  1.0000
  O   O982      1.0  0.7341050625098151  0.017003760399363868  0.4212814718444249  1.0000
  N   N936      1.0  0.7565538311479615  0.9950446173514294  0.39895837503050036  1.0000
  N   N937      1.0  0.7336689451147977  0.04861694671675005  0.3405296695438713  1.0000
  C   C3422     1.0  0.7133913861392265  0.052835611233199666  0.3248855387847347  1.0000
  C   C3423     1.0  0.6940463000326274  0.03208211011488624  0.31760236308684864  1.0000
  O   O983      1.0  0.7000699025294672  0.013098671953605114  0.31856583251773485  1.0000
  C   C3424     1.0  0.7231528511552652  0.05808845126301306  0.3046690107264768  1.0000
  C   C3425     1.0  0.739980806069154  0.08009985222433769  0.3094047079291382  1.0000
  C   C3426     1.0  0.7655393433046269  0.08133643113233785  0.31735741323153854  1.0000
  C   C3427     1.0  0.7304181095783795  0.09969987885178838  0.30589376000302715  1.0000
  C   C3428     1.0  0.7812719488389044  0.10163850584282784  0.3218318305885357  1.0000
  C   C3429     1.0  0.7460900060264082  0.12016639237685318  0.3103681773600244  1.0000
  C   C3430     1.0  0.7713465442753992  0.12090965484112898  0.31832088266242475  1.0000
  O   O984      1.0  0.7866899995938834  0.14110089036817036  0.3227463100483601  1.0000
  N   N938      1.0  0.6705824808336251  0.03582936430265492  0.3105151472732105  1.0000
  C   C3431     1.0  0.6512737687181571  0.01674494094682884  0.30194190233735796  1.0000
  C   C3432     1.0  0.6593195699132417  0.0022982203457716293  0.28166005431768415  1.0000
  O   O985      1.0  0.6703397898149712  0.01111091326621438  0.2692166016679325  1.0000
  C   C3433     1.0  0.6251272417391653  0.024927936907441037  0.2974184950092986  1.0000
  C   C3434     1.0  0.6057942025498938  0.0050601976590026404  0.2856935619351233  1.0000
  C   C3435     1.0  0.6167566463250852  0.03667856989806862  0.3187617924019829  1.0000
  N   N939      1.0  0.654953748290569  0.9800007833889126  0.27894927591891927  1.0000
  C   C3436     1.0  0.6654776159550557  0.9637651435689335  0.26271726550703856  1.0000
  C   C3437     1.0  0.6621727638146087  0.9692341854368833  0.24045948865453004  1.0000
  O   O986      1.0  0.6410944004865557  0.9715160975673723  0.23138001401770336  1.0000
  C   C3438     1.0  0.6528315204009675  0.9399034443217571  0.260659686722434  1.0000
  C   C3439     1.0  0.6642054128661966  0.9214795930198586  0.24607700533630772  1.0000
  C   C3440     1.0  0.6887123986489647  0.9162556440056743  0.25727937871915496  1.0000
  O   O987      1.0  0.6891347237281086  0.9125618799756425  0.2758955677227204  1.0000
  O   O988      1.0  0.7075392360934978  0.9160440289828663  0.24762835441993813  1.0000
  N   N940      1.0  0.6831842711980418  0.9711082217417606  0.23165762385372146  1.0000
  C   C3441     1.0  0.6824644708383406  0.9743891805999375  0.2097264468082931  1.0000
  C   C3442     1.0  0.6741087171242859  0.9968069253127096  0.20696667843846617  1.0000
  O   O989      1.0  0.6638493848800872  0.9984762077268005  0.18893836908764494  1.0000
  N   N941      1.0  0.6779812122143097  0.014214429585962533  0.2244071081365434  1.0000
  C   C3443     1.0  0.6683279344511386  0.03571721217624824  0.22365592858025918  1.0000
  C   C3444     1.0  0.6877786515283633  0.05505945616664385  0.23644231102744484  1.0000
  O   O990      1.0  0.7073790315233093  0.0516214478096743  0.24708946473825588  1.0000
  C   C3445     1.0  0.6435975673267996  0.03762359376510482  0.23298035307239584  1.0000
  O   O991      1.0  0.6487000078632006  0.04918593574516075  0.2553524398573823  1.0000
  N   N942      1.0  0.6820246920705106  0.07569175981561194  0.23536453166408056  1.0000
  C   C3446     1.0  0.6965972468682938  0.09631005566589415  0.2489184236579045  1.0000
  C   C3447     1.0  0.6834185312680663  0.10727870977806304  0.26797552240102807  1.0000
  O   O992      1.0  0.6891397894260911  0.12749160877102986  0.27718563696068677  1.0000
  C   C3448     1.0  0.7019596536954882  0.11309067036778045  0.23492362192452243  1.0000
  O   O993      1.0  0.6794223989762429  0.11850257256520433  0.22408050832946325  1.0000
  N   N943      1.0  0.665756601452353  0.09446652803743204  0.2738543189284698  1.0000
  C   C3449     1.0  0.6518880943440954  0.10316115892830484  0.29183363830822906  1.0000
  C   C3450     1.0  0.6676284764257054  0.10153094975448626  0.31306262576843524  1.0000
  O   O994      1.0  0.6707459948101901  0.0826706884374363  0.3166388936559623  1.0000
  C   C3451     1.0  0.6255071901591918  0.09017711105980243  0.28848599028565813  1.0000
  C   C3452     1.0  0.6114213332587208  0.08863909434715672  0.26555868382863534  1.0000
  C   C3453     1.0  0.6097788571969753  0.10150912452248222  0.3057631200801951  1.0000
  C   C3454     1.0  0.5891841136510496  0.07005170823929072  0.25838981806322725  1.0000
  N   N944      1.0  0.678145016605116  0.1204656081574951  0.3273187073474815  1.0000
  C   C3455     1.0  0.6941516407434134  0.11936516222847299  0.34743725546361526  1.0000
  C   C3456     1.0  0.6783760964864055  0.11349106133053988  0.36396320570186813  1.0000
  O   O995      1.0  0.6569136949881426  0.11926035145988531  0.36474704523886026  1.0000
  C   C3457     1.0  0.7076906092727284  0.14341689391557114  0.3556185806309716  1.0000
  C   C3458     1.0  0.6880688979263575  0.15807455877278237  0.3485640247980416  1.0000
  C   C3459     1.0  0.6739950769376317  0.1439743349304072  0.32663284775261325  1.0000
  N   N945      1.0  0.6891815350916957  0.10177319703784539  0.37728847783073594  1.0000
  C   C3460     1.0  0.6765556026904243  0.09458316691294275  0.39394506799182094  1.0000
  C   C3461     1.0  0.684603457395794  0.11223589721568993  0.41568028515300126  1.0000
  O   O996      1.0  0.7072530564020587  0.11548206022751294  0.4238452803300037  1.0000
  C   C3462     1.0  0.6825309348695853  0.07098656814272887  0.39639456654492156  1.0000
  C   C3463     1.0  0.6690474153525916  0.06415131380572273  0.41394930617547676  1.0000
  C   C3464     1.0  0.6748514705704438  0.05352179102322125  0.3750186091715294  1.0000
  N   N946      1.0  0.6671442705315153  0.12311490460727477  0.42551093934611206  1.0000
  C   C3465     1.0  0.6741693790923851  0.13867947132010824  0.44718083654587637  1.0000
  C   C3466     1.0  0.6832635261350313  0.12636049654981232  0.46463759623430756  1.0000
  O   O997      1.0  0.6745010203882824  0.10688918517963562  0.4639027466683773  1.0000
  C   C3467     1.0  0.6494783755189204  0.14891404130224062  0.4515736039511037  1.0000
  C   C3468     1.0  0.6339885613255906  0.14519626819814366  0.42894023732045317  1.0000
  C   C3469     1.0  0.6403511042687992  0.12258344752223534  0.41688870443919757  1.0000
  N   N947      1.0  0.7010941751740268  0.1379681258378477  0.4805756668198162  1.0000
  C   C3470     1.0  0.7087779570461459  0.12910972689905412  0.49958377559187783  1.0000
  C   C3471     1.0  0.6915112521541341  0.13495396129687626  0.5167465954539368  1.0000
  O   O998      1.0  0.6902204646764596  0.12358443037042816  0.5304147973802388  1.0000
  C   C3472     1.0  0.7361394647934512  0.13802253900294909  0.5097736895727767  1.0000
  O   O999      1.0  0.7391358404383888  0.16233595489617397  0.5158321159941125  1.0000
  C   C3473     1.0  0.7549909088224519  0.1296328050730825  0.4941458888039941  1.0000
  N   N948      1.0  0.6781617695499426  0.15231204833913517  0.5162566957433166  1.0000
  C   C3474     1.0  0.6621747749201738  0.16002528022220233  0.5326030160876754  1.0000
  C   C3475     1.0  0.6402870391235551  0.17024201701603428  0.5220375123286343  1.0000
  O   O1000     1.0  0.6414686245743644  0.17630252472786762  0.5050706523508234  1.0000
  C   C3476     1.0  0.67650789925505  0.17802961269112802  0.5523786344063751  1.0000
  C   C3477     1.0  0.6987690726949546  0.17029535481485716  0.5643975073069227  1.0000
  N   N949      1.0  0.7219058906140208  0.1693932585369138  0.5572613015222226  1.0000
  C   C3478     1.0  0.7014483570608083  0.16357892845228914  0.5833566261079223  1.0000
  C   C3479     1.0  0.7377734906395632  0.16206017712031182  0.5710928033520646  1.0000
  N   N950      1.0  0.7257799773581648  0.15836261140300487  0.5870472039279273  1.0000
  N   N951      1.0  0.6204030019403999  0.172678951681323  0.5325703561069675  1.0000
  C   C3480     1.0  0.6005468504247595  0.1862225721140331  0.5267895395216498  1.0000
  C   C3481     1.0  0.5962780951037512  0.20264962897719477  0.5474306473291117  1.0000
  O   O1001     1.0  0.5959779002332307  0.1963666054777212  0.5645608072104628  1.0000
  C   C3482     1.0  0.5755206562995578  0.17183177304990213  0.5159954158976525  1.0000
  C   C3483     1.0  0.576101312304079  0.15905957344616092  0.49272517964319573  1.0000
  C   C3484     1.0  0.571156157373132  0.16932264432390084  0.4753990598775967  1.0000
  C   C3485     1.0  0.5820753998905133  0.13674770527666236  0.4881037923730124  1.0000
  C   C3486     1.0  0.5716324009533876  0.157461590860196  0.45387613259101844  1.0000
  C   C3487     1.0  0.582575463609387  0.12465258819617062  0.4664992151346641  1.0000
  C   C3488     1.0  0.5774810530722676  0.1351768769805587  0.44976097502180923  1.0000
  O   O1002     1.0  0.5782561441526934  0.12372566442217646  0.42862996750372706  1.0000
  N   N952      1.0  0.5923583280659119  0.22341214666366901  0.5454873784769851  1.0000
  C   C3489     1.0  0.5894347732385178  0.2416060262742807  0.5638422876348865  1.0000
  C   C3490     1.0  0.562432166484989  0.24780010241017403  0.5616377389370959  1.0000
  O   O1003     1.0  0.5486489933872278  0.24349962778964387  0.5438053894705226  1.0000
  C   C3491     1.0  0.6084147992400323  0.262570590529302  0.565556936622057  1.0000
  C   C3492     1.0  0.602032515874512  0.2761410560148911  0.5488350264995561  1.0000
  C   C3493     1.0  0.5845317416362128  0.29213559032122594  0.551790754753631  1.0000
  C   C3494     1.0  0.6139315002310279  0.2737093695244202  0.5302514974766988  1.0000
  C   C3495     1.0  0.5786090511518132  0.30475624084170294  0.5364079038401586  1.0000
  C   C3496     1.0  0.6083252518323158  0.28665379226655024  0.5151789163799523  1.0000
  C   C3497     1.0  0.5905602304666471  0.3019532062097316  0.5182489545665052  1.0000
  O   O1004     1.0  0.58446626458268  0.3143515502977542  0.5029640835951568  1.0000
  N   N953      1.0  0.5549344975454208  0.25802233943510633  0.5801396180081833  1.0000
  C   C3498     1.0  0.5323541677580781  0.2696867848615106  0.5796333883072091  1.0000
  C   C3499     1.0  0.5369605503620243  0.28989137623491307  0.5991313967898908  1.0000
  O   O1005     1.0  0.5478985763759274  0.28799698488791414  0.616849436323986  1.0000
  C   C3500     1.0  0.5088429091468762  0.25434254990982824  0.5802865879213693  1.0000
  O   O1006     1.0  0.5027652266878494  0.23797595380981426  0.5600210698920494  1.0000
  N   N954      1.0  0.5296331318691275  0.3092944949952454  0.5954898089409477  1.0000
  C   C3501     1.0  0.53002939960683  0.32969072706219105  0.6129139086486708  1.0000
  C   C3502     1.0  0.5026635515747558  0.33403885378202564  0.6145958976551333  1.0000
  O   O1007     1.0  0.48827649761950154  0.3357436979873386  0.5982985672818366  1.0000
  C   C3503     1.0  0.5446452763637515  0.3502969707863336  0.6084231613013196  1.0000
  C   C3504     1.0  0.5722181184482945  0.34606646349893  0.6059573327578649  1.0000
  C   C3505     1.0  0.5422101565734708  0.37134606205926746  0.6260922108643527  1.0000
  C   C3506     1.0  0.5854586617818314  0.3625897428644826  0.5952938490566997  1.0000
  N   N955      1.0  0.4954988929131784  0.3359166345934781  0.634126566118523  1.0000
  C   C3507     1.0  0.46924830629663816  0.3375377510196789  0.6375395341025101  1.0000
  C   C3508     1.0  0.467717635630988  0.3599652449515478  0.6535429246494348  1.0000
  O   O1008     1.0  0.4772936940485095  0.3632947740283833  0.6728939632189304  1.0000
  C   C3509     1.0  0.4587784783697795  0.31761427570273243  0.6457698492409285  1.0000
  C   C3510     1.0  0.4628018294366072  0.2953792122960424  0.6300114085493138  1.0000
  C   C3511     1.0  0.4314816199032647  0.31964297771632  0.6477131180930551  1.0000
  C   C3512     1.0  0.45654587190548257  0.27445881239361497  0.6376048540639261  1.0000
  N   N956      1.0  0.45571218048462625  0.37530024927630135  0.6455085693952645  1.0000
  C   C3513     1.0  0.4554088653550661  0.3985373093820366  0.657756062160768  1.0000
  C   C3514     1.0  0.4285219226303314  0.4031420481944335  0.661462969971127  1.0000
  O   O1009     1.0  0.4102070829056911  0.39459523617542447  0.6473865182859749  1.0000
  C   C3515     1.0  0.4666526250418912  0.4153244473886124  0.6455738893566805  1.0000
  O   O1010     1.0  0.48970379550509247  0.4078855941985437  0.6385356635141044  1.0000
  C   C3516     1.0  0.47259577221867477  0.43914532237457377  0.6603688606174087  1.0000
  N   N957      1.0  0.426178398070973  0.416786996352603  0.6805037387238966  1.0000
  C   C3517     1.0  0.40190068526337563  0.4239651788185414  0.6855007157722222  1.0000
  C   C3518     1.0  0.4072058568040994  0.44692230752306034  0.7017163961937489  1.0000
  O   O1011     1.0  0.42878527995619875  0.4565948545630385  0.7070236430588004  1.0000
  C   C3519     1.0  0.38710999018654446  0.40632635624825547  0.6940576307177206  1.0000
  O   O1012     1.0  0.39899846134003136  0.4052595070307448  0.7152376282068649  1.0000
  N   N958      1.0  0.38757930383818884  0.4555990100474184  0.7098977213611052  1.0000
  C   C3520     1.0  0.3905169093243056  0.4779653342675432  0.7244640727568774  1.0000
  C   C3521     1.0  0.3982206038537207  0.4755111277072186  0.7475383491270862  1.0000
  O   O1013     1.0  0.3875793255435154  0.4601281763413535  0.7538580553940861  1.0000
  C   C3522     1.0  0.36600362172465517  0.4891282651040479  0.722667773817937  1.0000
  S   S45       1.0  0.3708476685719697  0.5196463723633556  0.7321881581943217  1.0000
  N   N959      1.0  0.4170975140483758  0.4901226392453577  0.7600144617575458  1.0000
  C   C3523     1.0  0.4237505859640931  0.4888946533071366  0.7827294783399665  1.0000
  C   C3524     1.0  0.4015387018830813  0.4936485812994831  0.7950422910668861  1.0000
  O   O1014     1.0  0.3967585791795476  0.4831544253666634  0.8087921429449582  1.0000
  C   C3525     1.0  0.4467191274322909  0.5054088875141786  0.7941278116070618  1.0000
  C   C3526     1.0  0.4549789670092339  0.502806476665551  0.8172674079386866  1.0000
  C   C3527     1.0  0.46508223358670275  0.47999580122839236  0.8169244781412525  1.0000
  C   C3528     1.0  0.4747836740748479  0.5221367541164286  0.8299394804533943  1.0000
  N   N960      1.0  0.38774683772677754  0.5094008681380309  0.7902086139221007  1.0000
  C   C3529     1.0  0.3632356062291785  0.5127163657138409  0.7972631697550308  1.0000
  C   C3530     1.0  0.3436134836377088  0.4947304755000156  0.7819946287740362  1.0000
  O   O1015     1.0  0.33297458792901435  0.4981191665077876  0.7649297888541013  1.0000
  C   C3531     1.0  0.35704139665010726  0.5366270254841254  0.7968712499865347  1.0000
  C   C3532     1.0  0.33130711347951225  0.5411872811153536  0.8029133464175164  1.0000
  O   O1016     1.0  0.3184711986731833  0.5263388605744492  0.8092003927038083  1.0000
  O   O1017     1.0  0.324132792009328  0.5600235617642604  0.8016885971409661  1.0000
  N   N961      1.0  0.3381043270271049  0.4758238468051254  0.7884939649349302  1.0000
  C   C3533     1.0  0.32042824694337524  0.45653541180104157  0.7755932725552663  1.0000
  C   C3534     1.0  0.29316318256722695  0.4618809769949427  0.7726212143108375  1.0000
  O   O1018     1.0  0.27691597060244566  0.44721230678752033  0.7613045309955122  1.0000
  C   C3535     1.0  0.32172978644006955  0.4366283327764454  0.7864037261696175  1.0000
  C   C3536     1.0  0.317753855535432  0.44272816578483354  0.8097556123758444  1.0000
  C   C3537     1.0  0.2934057115935562  0.4425422918582762  0.81516083918302  1.0000
  C   C3538     1.0  0.3381723845037642  0.44948296584624203  0.8262815626140972  1.0000
  C   C3539     1.0  0.28968421395947597  0.4486473587463073  0.8368797263538463  1.0000
  C   C3540     1.0  0.33457158823890265  0.4554729255640707  0.8480004497849236  1.0000
  C   C3541     1.0  0.3103345646704222  0.4551025290202847  0.8532587066789131  1.0000
  N   N962      1.0  0.28750061403241733  0.4820085162528363  0.7828111282917365  1.0000
  C   C3542     1.0  0.2625488536348741  0.48868888593435383  0.777667181330225  1.0000
  C   C3543     1.0  0.2598842916345273  0.4969363965860994  0.7568627736192229  1.0000
  O   O1019     1.0  0.23888411910098373  0.5006372501020957  0.7488610783457605  1.0000
  C   C3544     1.0  0.2565859342537098  0.5069624726900244  0.7968059300251187  1.0000
  O   O1020     1.0  0.27120004954472343  0.5280301775757298  0.798406269079811  1.0000
  C   C3545     1.0  0.2623908446181126  0.49987996535953094  0.8183941772731129  1.0000
  N   N963      1.0  0.28053368406983104  0.49971995177863415  0.7477506390016884  1.0000
  C   C3546     1.0  0.27811990113780694  0.5043683459430496  0.726293031676526  1.0000
  C   C3547     1.0  0.2831663209773282  0.4836652851293192  0.7096854314865031  1.0000
  O   O1021     1.0  0.30054667062260865  0.4725798394138696  0.7142414987952705  1.0000
  C   C3548     1.0  0.2964506108120539  0.5244366615701527  0.7254602021684717  1.0000
  C   C3549     1.0  0.2958324938718281  0.5454802287252185  0.743570161471063  1.0000
  C   C3550     1.0  0.31785227646356495  0.5627675157171903  0.7446479408344273  1.0000
  O   O1022     1.0  0.32312166393384967  0.5674789970839534  0.7278770407408645  1.0000
  N   N964      1.0  0.3312868836305025  0.571970522329984  0.7643419092013571  1.0000
  N   N965      1.0  0.26859947110767746  0.4783127399228427  0.6904650328398396  1.0000
  C   C3551     1.0  0.27250978361078826  0.458629827825033  0.6736614727655685  1.0000
  C   C3552     1.0  0.29707574605689335  0.46277696904742405  0.6649412579165301  1.0000
  O   O1023     1.0  0.3072778510104057  0.48212107823573397  0.6668845267686566  1.0000
  C   C3553     1.0  0.24964041211313048  0.4566016207012738  0.6561720530964295  1.0000
  C   C3554     1.0  0.24355822115951453  0.48041637209416  0.6587685215627163  1.0000
  C   C3555     1.0  0.24835720373703485  0.4908102325978459  0.6827246174120414  1.0000
  N   N966      1.0  0.3067932977218132  0.4440491247931267  0.6554208735401453  1.0000
  C   C3556     1.0  0.33175284568348296  0.4457895973775261  0.6485296176107553  1.0000
  C   C3557     1.0  0.3333673539981562  0.46168216159766945  0.6332774066201148  1.0000
  O   O1024     1.0  0.35283004589249733  0.47458131603057724  0.6348940756651613  1.0000
  C   C3558     1.0  0.3382383257294269  0.422462909549964  0.6373109142375539  1.0000
  N   N967      1.0  0.3133840299644639  0.4608305865073484  0.6180741856005363  1.0000
  C   C3559     1.0  0.31434660062795117  0.47392355136511366  0.6015482353622836  1.0000
  C   C3560     1.0  0.3084886733502338  0.49829345027295757  0.6092233308286659  1.0000
  O   O1025     1.0  0.3082633126378683  0.5107658489160244  0.596485938352542  1.0000
  C   C3561     1.0  0.2965500581228334  0.4620445885336512  0.5804825478056174  1.0000
  C   C3562     1.0  0.26871895720861094  0.4592760260314488  0.5836342359439404  1.0000
  O   O1026     1.0  0.26284586607129923  0.4641572227935264  0.6024137248510457  1.0000
  O   O1027     1.0  0.25255095321544563  0.4519008358165957  0.5669939757732094  1.0000
  N   N968      1.0  0.30436417699391416  0.5055497173351583  0.6296194887808177  1.0000
  C   C3563     1.0  0.29826052877450704  0.5284943942019233  0.6381764037263162  1.0000
  C   C3564     1.0  0.31328236105651786  0.538111671472872  0.6607281204051969  1.0000
  O   O1028     1.0  0.30337923682586854  0.5486901164780686  0.6758333614826513  1.0000
  C   C3565     1.0  0.2699194396464908  0.5289982116988657  0.6387479533887064  1.0000
  C   C3566     1.0  0.2556298145749156  0.5355689460353593  0.6190703150121306  1.0000
  C   C3567     1.0  0.22783592090009852  0.5371617805127309  0.6210462438449653  1.0000
  C   C3568     1.0  0.21499051927967394  0.5146564207469498  0.6229241927356758  1.0000
  N   N969      1.0  0.19654328627853235  0.5176139403227957  0.6390582232054325  1.0000
  N   N970      1.0  0.33743025127031545  0.534366686898214  0.6632592689100676  1.0000
  C   C3569     1.0  0.3532698638927766  0.5398647956586184  0.6845209163509818  1.0000
  C   C3570     1.0  0.3660181489705622  0.5639426015657172  0.6896975232932013  1.0000
  O   O1029     1.0  0.3792353677169247  0.5698780339414731  0.6771234307206176  1.0000
  C   C3571     1.0  0.3734747781791252  0.523566396872031  0.685304755887974  1.0000
  S   S46       1.0  0.3933818379098988  0.5299152243032564  0.7117756702518158  1.0000
  N   N971      1.0  0.3631538283806489  0.5774314375276335  0.7087056320652628  1.0000
  C   C3572     1.0  0.37571303078609763  0.6005515205616699  0.7151233182743868  1.0000
  C   C3573     1.0  0.4034180151872764  0.6015308926054826  0.7250846123903296  1.0000
  O   O1030     1.0  0.42055228126552036  0.6060563715735421  0.7150416683226167  1.0000
  C   C3574     1.0  0.36096580797231037  0.6156300649683472  0.7306694690913993  1.0000
  C   C3575     1.0  0.33601969758210626  0.6199547059098667  0.719156825891826  1.0000
  O   O1031     1.0  0.317097120297124  0.6197351400935838  0.7286608802778567  1.0000
  O   O1032     1.0  0.3352779706177955  0.6233037764948486  0.7003446770040125  1.0000
  N   N972      1.0  0.4082133654488189  0.5973114239622225  0.7448275707283214  1.0000
  C   C3576     1.0  0.43336991930058155  0.6015880606819306  0.7572710233780731  1.0000
  C   C3577     1.0  0.45015154134056956  0.5825115785279869  0.7526333061175356  1.0000
  O   O1033     1.0  0.45202565110162907  0.5725248706061414  0.7337558372683062  1.0000
  N   N973      1.0  0.46285884099682073  0.577243179626566  0.7700084158541968  1.0000
  C   C3578     1.0  0.4811183232936601  0.5604505936815792  0.7672159875036619  1.0000
  C   C3579     1.0  0.46909363621532274  0.5372002300221723  0.7539886953169181  1.0000
  O   O1034     1.0  0.4464858249226482  0.5311516032632353  0.7531395358185098  1.0000
  C   C3580     1.0  0.4910674851082195  0.559668348267235  0.7906658536520128  1.0000
  C   C3581     1.0  0.48552784128941073  0.5813550777018819  0.8043503855686689  1.0000
  C   C3582     1.0  0.4618098081673657  0.5870764017913583  0.7931643421761756  1.0000
  N   N974      1.0  0.4848229779729619  0.5242548176848135  0.7437171313842491  1.0000
  C   C3583     1.0  0.47761126385089037  0.50118428994551  0.7308164390045853  1.0000
  C   C3584     1.0  0.4862641136029463  0.4840868926261388  0.743602821451771  1.0000
  O   O1035     1.0  0.5025536746531806  0.48946061600030505  0.7600634517286079  1.0000
  C   C3585     1.0  0.4888905226122495  0.4972321153972941  0.7094894716022551  1.0000
  C   C3586     1.0  0.48209250359882994  0.5130200735004532  0.6948088102740049  1.0000
  C   C3587     1.0  0.49714623896402843  0.5083571245392621  0.6759150114344212  1.0000
  C   C3588     1.0  0.4538600389694919  0.5095593026089401  0.6869050949426665  1.0000
  N   N975      1.0  0.4756164250645384  0.46291388697002755  0.7350948964773345  1.0000
  C   C3589     1.0  0.48094151258164175  0.44391925780568914  0.7446806008151354  1.0000
  C   C3590     1.0  0.48620940720825645  0.4243383586795958  0.7268319213582082  1.0000
  O   O1036     1.0  0.4714583215637569  0.4180095531667424  0.709505801592609  1.0000
  C   C3591     1.0  0.45874552916322875  0.43659685350355876  0.7551807846127605  1.0000
  O   O1037     1.0  0.4637756266292793  0.417626285890403  0.763672379596843  1.0000
  N   N976      1.0  0.5069205318073863  0.41456177170390845  0.7308980889563554  1.0000
  C   C3592     1.0  0.5155184310236803  0.3982186423834521  0.7135719691907563  1.0000
  C   C3593     1.0  0.5228360868086585  0.3779408908720199  0.7220309041941309  1.0000
  O   O1038     1.0  0.5340875104555649  0.38039266116514475  0.7407614031301742  1.0000
  C   C3594     1.0  0.5379218402269628  0.40873810170339375  0.7047537743995937  1.0000
  C   C3595     1.0  0.5611241330419894  0.4165048047454406  0.7223738339915649  1.0000
  C   C3596     1.0  0.5448005444561228  0.3918560118051444  0.684994486071248  1.0000
  N   N977      1.0  0.5165152473789683  0.3579077136221852  0.7080524324511026  1.0000
  C   C3597     1.0  0.5281450538438928  0.3377058342746045  0.7107958708305755  1.0000
  C   C3598     1.0  0.535070894263264  0.32658258104158955  0.688668733900899  1.0000
  O   O1039     1.0  0.5215409406232304  0.3274957351468615  0.67183251384592  1.0000
  C   C3599     1.0  0.5101787735046595  0.32098716011734074  0.7182913364030636  1.0000
  O   O1040     1.0  0.4871168003611086  0.31568489815295103  0.7039046149011854  1.0000
  N   N978      1.0  0.5561258095497272  0.3164493007874021  0.688587083949129  1.0000
  C   C3600     1.0  0.5652906500702595  0.3066194615995135  0.668223585977685  1.0000
  C   C3601     1.0  0.5768146793101974  0.2850392271821047  0.6700525448973336  1.0000
  O   O1041     1.0  0.5843084360983459  0.28162304405713917  0.6879992042963847  1.0000
  C   C3602     1.0  0.5854631477986008  0.3227270714084755  0.6628346891608634  1.0000
  O   O1042     1.0  0.5803305426899276  0.34546166532659695  0.6689584355436153  1.0000
  N   N979      1.0  0.5789038299544159  0.2706532575824202  0.6513383759516441  1.0000
  C   C3603     1.0  0.592507405817392  0.2509185062815917  0.6519915755658043  1.0000
  C   C3604     1.0  0.6047498885767816  0.243835214007473  0.6314974376715283  1.0000
  O   O1043     1.0  0.5980801650695022  0.2503713381504588  0.6149224974622134  1.0000
  C   C3605     1.0  0.5751841919084285  0.2311939182066492  0.654604374022445  1.0000
  C   C3606     1.0  0.5523046014312945  0.22506888169293568  0.6378334739288821  1.0000
  C   C3607     1.0  0.5535528547791436  0.21255245676101392  0.616849436323986  1.0000
  C   C3608     1.0  0.529186262038649  0.23156411969042448  0.6429937508807477  1.0000
  C   C3609     1.0  0.5319972325647677  0.20665407554954784  0.6011889755744955  1.0000
  C   C3610     1.0  0.5078073783950336  0.22583360785954387  0.6275455800058591  1.0000
  C   C3611     1.0  0.5090844036739832  0.21323048617839543  0.606675852333441  1.0000
  N   N980      1.0  0.6228363984385112  0.23019415312320018  0.6330487867551587  1.0000
  C   C3612     1.0  0.6367006387166722  0.22094365147359826  0.6153470772114176  1.0000
  C   C3613     1.0  0.635668261031026  0.19553518059349054  0.6136160982338931  1.0000
  O   O1044     1.0  0.6512734989566284  0.18793778853156168  0.6252593813562985  1.0000
  C   C3614     1.0  0.6641005010442689  0.23175907206942462  0.6193642548385028  1.0000
  C   C3615     1.0  0.664990863530107  0.25714955269873546  0.6202950642886811  1.0000
  C   C3616     1.0  0.6783128869536972  0.21961122607248182  0.6013849354587435  1.0000
  C   C3617     1.0  0.6911622708932502  0.2697669724167948  0.6277252098997532  1.0000
  N   N981      1.0  0.6180476822209202  0.18256195260678107  0.5991967167513068  1.0000
  C   C3618     1.0  0.6135156685739973  0.15846501449474276  0.5987068170406866  1.0000
  C   C3619     1.0  0.6294083706786093  0.14462683168458365  0.5835199260114623  1.0000
  O   O1045     1.0  0.6282152538929662  0.14645578533308484  0.5644138372972767  1.0000
  C   C3620     1.0  0.5856468219466571  0.14984429539159302  0.5910153915839504  1.0000
  C   C3621     1.0  0.5667047207820493  0.1521397917223861  0.6071984120247692  1.0000
  C   C3622     1.0  0.5397265406424152  0.14373427527055135  0.5952121991049297  1.0000
  C   C3623     1.0  0.5740100922570319  0.13911113690415086  0.6241816019929342  1.0000
  N   N982      1.0  0.6442686052878585  0.1306824867965083  0.5911950214778445  1.0000
  C   C3624     1.0  0.6595988731100553  0.11675103634332586  0.5768899499277363  1.0000
  C   C3625     1.0  0.6432711993547742  0.09933918320028001  0.5582411009434629  1.0000
  O   O1046     1.0  0.6253695782443771  0.08739472548962014  0.5614581090432018  1.0000
  C   C3626     1.0  0.675278560048463  0.10533016110368745  0.5924687607254568  1.0000
  C   C3627     1.0  0.6601630986441713  0.10556732216273529  0.6108236698833582  1.0000
  C   C3628     1.0  0.6484621852886394  0.12749445775402252  0.6136324282242471  1.0000
  N   N983      1.0  0.6498390743643332  0.09776166024181569  0.5386614425090112  1.0000
  C   C3629     1.0  0.6365038612211276  0.08142928891887027  0.5192614139684535  1.0000
  C   C3630     1.0  0.6478749366883452  0.059087078542617515  0.517693734894469  1.0000
  O   O1047     1.0  0.6659146362746917  0.054917174785682955  0.5078630807013582  1.0000
  C   C3631     1.0  0.6386220941148606  0.09022183144879468  0.4989958959391336  1.0000
  C   C3632     1.0  0.6236318871712758  0.07532706741681768  0.47869771792910565  1.0000
  N   N984      1.0  0.6288139369275718  0.07568900416655336  0.4581219300830597  1.0000
  C   C3633     1.0  0.6033146917174732  0.05978848444935275  0.47585629960750875  1.0000
  C   C3634     1.0  0.6122476725398158  0.06107628408640709  0.44345759874516333  1.0000
  N   N985      1.0  0.5965946772002447  0.05121788211862885  0.4538108126296023  1.0000
  N   N986      1.0  0.6369533948337525  0.04431873626803622  0.5272141192708538  1.0000
  C   C3635     1.0  0.6477067336453448  0.023218724095865822  0.5279979588078461  1.0000
  C   C3636     1.0  0.6308367444581933  0.0026823574146459645  0.5132519775181797  1.0000
  O   O1048     1.0  0.6076108660846482  0.0023332342167638816  0.5105901890904769  1.0000
  C   C3637     1.0  0.6517313072500736  0.020039939975483784  0.5513988349851349  1.0000
  C   C3638     1.0  0.666635817639379  0.04005880018965033  0.5685616548471939  1.0000
  C   C3639     1.0  0.6929684510994423  0.04484665801725801  0.5638749476155945  1.0000
  N   N987      1.0  0.705934363979815  0.02443466242710151  0.5603476696991295  1.0000
  C   C3640     1.0  0.7207936344206909  0.019348683183887584  0.545177108660259  1.0000
  N   N988      1.0  0.7244507409873002  0.033342664249735296  0.5322764162805953  1.0000
  N   N989      1.0  0.7317966167730343  0.00035136099248475627  0.5427766000782204  1.0000
  N   N990      1.0  0.6420174334120359  0.9850316920734061  0.5036989331610869  1.0000
  C   C3641     1.0  0.626934762288307  0.9643839390262197  0.4903573310418651  1.0000
  C   C3642     1.0  0.6162442666591059  0.9491596787067006  0.5036009532189629  1.0000
  O   O1049     1.0  0.6028292739734227  0.931484661576053  0.4939499289197461  1.0000
  C   C3643     1.0  0.6460530782783307  0.9527847981225845  0.47690141899016514  1.0000
  C   C3644     1.0  0.6699167032556894  0.9586884940967328  0.4921862899615136  1.0000
  C   C3645     1.0  0.6692785659239133  0.9830557046810946  0.5045480926594952  1.0000
  N   N991      1.0  0.6215458366737989  0.9554539549090855  0.5252871804090813  1.0000
  C   C3646     1.0  0.6105037350756137  0.9427437242558888  0.5391186822389233  1.0000
  C   C3647     1.0  0.6047143637143733  0.9592920404726779  0.5591229204225792  1.0000
  O   O1050     1.0  0.6118163949888145  0.9796617749056693  0.5630094581268323  1.0000
  C   C3648     1.0  0.6277246563944003  0.9260555540714579  0.5460752581297293  1.0000
  C   C3649     1.0  0.6528717232557588  0.937747543907745  0.558779990625145  1.0000
  O   O1051     1.0  0.6530430631413852  0.9514985636691987  0.5767919699856123  1.0000
  O   O1052     1.0  0.6724724843318384  0.9333876742987529  0.5505006855156647  1.0000
  N   N992      1.0  0.5914834164943992  0.9501539004890964  0.5717786629469328  1.0000
  C   C3650     1.0  0.5861121220510431  0.962946022129413  0.5926810506000589  1.0000
  C   C3651     1.0  0.5996496942890512  0.9546018608577406  0.6115748494396425  1.0000
  O   O1053     1.0  0.5898762086553153  0.9541546595511459  0.6279701597550633  1.0000
  C   C3652     1.0  0.5576449342130848  0.9619756237682362  0.5927463705614751  1.0000
  C   C3653     1.0  0.5450508697941769  0.9759387297399869  0.5779350693103926  1.0000
  O   O1054     1.0  0.5502249224852135  0.996586754026641  0.5822135267831419  1.0000
  N   N993      1.0  0.5290445718038584  0.9647019490000411  0.5604456496412535  1.0000
  N   N994      1.0  0.6227202356291007  0.9482366608365044  0.6094519506936218  1.0000
  C   C3654     1.0  0.6375919394879231  0.9404282056378678  0.6266637605267429  1.0000
  C   C3655     1.0  0.6442082541157997  0.9589543458545327  0.647811098035179  1.0000
  O   O1055     1.0  0.647259588175115  0.9537051933350229  0.6655944575306902  1.0000
  C   C3656     1.0  0.6617129568091499  0.9316558516804042  0.6188253651568206  1.0000
  C   C3657     1.0  0.6561954033546553  0.91020223426483  0.6003888060471492  1.0000
  O   O1056     1.0  0.6343105360451985  0.900214113149374  0.5960613586033379  1.0000
  O   O1057     1.0  0.6737617909585849  0.9033611418693913  0.5902642120276662  1.0000
  N   N995      1.0  0.6464197640666438  0.9805335334960128  0.6463087389226106  1.0000
  C   C3658     1.0  0.6501431937301176  0.9991921906572268  0.6658720673667085  1.0000
  C   C3659     1.0  0.6286810999642602  0.9986068341112436  0.6791973394955763  1.0000
  O   O1058     1.0  0.6325940976134631  0.007641133922709011  0.698940297833568  1.0000
  C   C3660     1.0  0.6526809388473029  0.02231041808494158  0.6600422608103287  1.0000
  C   C3661     1.0  0.662238211354007  0.04271233603583376  0.6795402692930104  1.0000
  C   C3662     1.0  0.6648693803003913  0.06527440246659444  0.6727959832768065  1.0000
  O   O1059     1.0  0.6624812937355189  0.06502176341897843  0.6528570650545666  1.0000
  O   O1060     1.0  0.6693612930389543  0.08329954198194556  0.6873623346725786  1.0000
  N   N996      1.0  0.6061154610050464  0.9882177125973722  0.6691543954278633  1.0000
  C   C3663     1.0  0.584012733538529  0.9890613464858109  0.6804220887721266  1.0000
  C   C3664     1.0  0.5774931329622657  0.9657755875048427  0.6846515562738138  1.0000
  O   O1061     1.0  0.5644170544032199  0.9507261624677376  0.6702811647622897  1.0000
  C   C3665     1.0  0.5617680285389354  0.9960198585500875  0.6667375568554705  1.0000
  O   O1062     1.0  0.56723984691967  0.017938472463042313  0.6632266089293596  1.0000
  N   N997      1.0  0.5860604876163009  0.9630027617194689  0.7045251545346376  1.0000
  C   C3666     1.0  0.582345602383129  0.940714346034353  0.7092608517372991  1.0000
  C   C3667     1.0  0.5544304584912219  0.9323509003832549  0.7072359329334024  1.0000
  O   O1063     1.0  0.5477069252034368  0.9118163084253174  0.7034800351519813  1.0000
  C   C3668     1.0  0.5955306954925694  0.9413686611350486  0.7321391682232598  1.0000
  S   S47       1.0  0.6290937489030486  0.9466611595851666  0.7341804170175104  1.0000
  N   N998      1.0  0.5378459414151038  0.9477254632465164  0.7099467113321672  1.0000
  C   C3669     1.0  0.5108588294819316  0.9411050690299109  0.7079217925282706  1.0000
  C   C3670     1.0  0.4966174212653488  0.9404947708109054  0.6854190658204521  1.0000
  O   O1064     1.0  0.4734419389730563  0.9403459860461524  0.6831002071901834  1.0000
  C   C3671     1.0  0.49954905281172335  0.9570527077746449  0.7255091921395338  1.0000
  N   N999      1.0  0.5097872002403034  0.9401122888470475  0.6687951356400752  1.0000
  C   C3672     1.0  0.49690508905161124  0.9411883021036227  0.6473211983245589  1.0000
  C   C3673     1.0  0.4774096480276322  0.9209631463329128  0.6368046845365798  1.0000
  O   O1065     1.0  0.4615591204175252  0.9222214934766452  0.6212911937002754  1.0000
  C   C3674     1.0  0.515736236192817  0.9432288850701067  0.6314484477004663  1.0000
  O   O1066     1.0  0.5311199463171636  0.9252837619367966  0.6291132590798436  1.0000
  N   N1000     1.0  0.4778356428474212  0.9024551009524235  0.6446430799065022  1.0000
  C   C3675     1.0  0.4587204039130641  0.8834321042526343  0.6348614156844533  1.0000
  C   C3676     1.0  0.433524297203131  0.8873868196534288  0.6425691711315435  1.0000
  O   O1067     1.0  0.4140210227061897  0.8765858921545242  0.6314647776908202  1.0000
  C   C3677     1.0  0.46740936966373414  0.8615917319984383  0.6396134428774687  1.0000
  O   O1068     1.0  0.48529602797599514  0.8534588195163197  0.6259452409511668  1.0000
  N   N1001     1.0  0.43344303238747506  0.9027888793374661  0.6610710502026309  1.0000
  C   C3678     1.0  0.4098738737904689  0.909170846772317  0.668223585977685  1.0000
  C   C3679     1.0  0.39851709942872127  0.9250359997583062  0.6551106037234191  1.0000
  O   O1069     1.0  0.4088103741729082  0.9306898401865349  0.640609572289063  1.0000
  C   C3680     1.0  0.4141490882293244  0.9200977726146636  0.6926042615762141  1.0000
  C   C3681     1.0  0.4305693679287814  0.9078035350502146  0.7061908135507462  1.0000
  C   C3682     1.0  0.429904626789527  0.9165889070267071  0.7304898391975052  1.0000
  O   O1070     1.0  0.40889136907297485  0.9203066754272219  0.736450285676717  1.0000
  O   O1071     1.0  0.4502064037926983  0.919901378451703  0.7436191514421251  1.0000
  N   N1002     1.0  0.37673769150759107  0.9320740951990774  0.6602055607138687  1.0000
  C   C3683     1.0  0.3642203009844823  0.9481523429893495  0.6498686768197837  1.0000
  C   C3684     1.0  0.38176050274429796  0.9699142023453191  0.6529387150063366  1.0000
  O   O1072     1.0  0.39793353015494204  0.9767723523925975  0.6692850353506954  1.0000
  C   C3685     1.0  0.34011014414617  0.9532678746076818  0.6596666710321866  1.0000
  C   C3686     1.0  0.32588673873688234  0.9699317405918123  0.6500319767233237  1.0000
  O   O1073     1.0  0.32038470398922825  0.9659967188736501  0.6297664586940037  1.0000
  O   O1074     1.0  0.32018772673462903  0.9870213821777194  0.6627530392090935  1.0000
  N   N1003     1.0  0.37818545112179136  0.981027749244762  0.6370496343918899  1.0000
  C   C3687     1.0  0.39406630117197694  0.0018679614074771393  0.6378008139481741  1.0000
  C   C3688     1.0  0.391044988425712  0.02107031343271642  0.6570375425851918  1.0000
  O   O1075     1.0  0.4081729950950753  0.03663566527360334  0.6643533782637859  1.0000
  C   C3689     1.0  0.38800148499350884  0.009417967905987052  0.6165718264879679  1.0000
  C   C3690     1.0  0.40177465298955894  0.998163615625616  0.5981515973686505  1.0000
  C   C3691     1.0  0.387975010654954  0.975759379118119  0.5851529250468628  1.0000
  O   O1076     1.0  0.3657964115758048  0.9711907349842872  0.5881413132816457  1.0000
  O   O1077     1.0  0.3993053552916864  0.9627979891987812  0.5721705827154289  1.0000
  N   N1004     1.0  0.36951241522484335  0.020549990170034532  0.6654638176078582  1.0000
  C   C3692     1.0  0.3669387875121526  0.038309967324141034  0.6845209163509818  1.0000
  C   C3693     1.0  0.3848186130161436  0.03720889332956178  0.7048354243513637  1.0000
  O   O1078     1.0  0.38744410611182234  0.05326365045350869  0.7210674347632444  1.0000
  C   C3694     1.0  0.3396499179500163  0.03719315369311844  0.6892239535729352  1.0000
  O   O1079     1.0  0.33307560661793467  0.017408637742371204  0.6964254793190513  1.0000
  N   N1005     1.0  0.3972933096404432  0.01892518134551986  0.7042475446986196  1.0000
  C   C3695     1.0  0.41460799214384114  0.01625520595260522  0.722814743731123  1.0000
  C   C3696     1.0  0.4421258623674248  0.024477984102086132  0.7225534638854589  1.0000
  O   O1080     1.0  0.45730572710299555  0.02779027946582841  0.739585643824686  1.0000
  C   C3697     1.0  0.41323371817060617  0.9912159420730335  0.7238925230944873  1.0000
  C   C3698     1.0  0.3866938464423453  0.9790424119761119  0.7216226544352806  1.0000
  C   C3699     1.0  0.37639155535852165  0.9828457541704677  0.743210901683275  1.0000
  C   C3700     1.0  0.36027238947738827  0.002782133329471731  0.7463462598312438  1.0000
  N   N1006     1.0  0.3536884315007638  0.009981950670985708  0.7689632964715405  1.0000
  N   N1007     1.0  0.4493654923580468  0.027612656162563746  0.7039372748818935  1.0000
  C   C3701     1.0  0.47625049576483314  0.03293424068832157  0.7033167352484413  1.0000
  C   C3702     1.0  0.4823581808583638  0.050663994700655704  0.6907589726662116  1.0000
  O   O1081     1.0  0.5028799080990242  0.06254324306676078  0.6963438293672812  1.0000
  C   C3703     1.0  0.4879289164884666  0.011296457481608005  0.6936003909878083  1.0000
  C   C3704     1.0  0.4754686507463558  0.9992403803474563  0.671358944125654  1.0000
  C   C3705     1.0  0.4533023533317795  0.9851689903400105  0.6660843572413104  1.0000
  C   C3706     1.0  0.48410533478708395  0.9999715716868353  0.651011776144564  1.0000
  N   N1008     1.0  0.44773424765393943  0.9770432102293813  0.6437775904177399  1.0000
  C   C3707     1.0  0.4662358098924533  0.9858428422452702  0.634126566118523  1.0000
  C   C3708     1.0  0.5052920327402037  0.011011035440883915  0.6454105894531403  1.0000
  C   C3709     1.0  0.4686313602498786  0.9827604376897754  0.6120647491502627  1.0000
  C   C3710     1.0  0.5077872613845069  0.007711011150059686  0.6232671225331099  1.0000
  C   C3711     1.0  0.489512645886534  0.993679060800568  0.6069697921598132  1.0000
  N   N1009     1.0  0.4657198991453674  0.05319166104439961  0.6742656824086668  1.0000
  C   C3712     1.0  0.4726270727228151  0.06800691787933899  0.6603688606174087  1.0000
  C   C3713     1.0  0.47917353294922915  0.09244145035886993  0.6735308328427365  1.0000
  O   O1082     1.0  0.4983797657466418  0.10392150164019186  0.671554904009902  1.0000
  C   C3714     1.0  0.451486093271081  0.06600486585861967  0.6411321319803911  1.0000
  C   C3715     1.0  0.4576406425222035  0.08343457137315129  0.6285580394078074  1.0000
  C   C3716     1.0  0.44860542625298516  0.042155371096496946  0.6262881707486008  1.0000
  N   N1010     1.0  0.4635804465703244  0.10082060235247915  0.6873296746918707  1.0000
  C   C3717     1.0  0.46942758272972507  0.12430306454896224  0.6999690872258704  1.0000
  C   C3718     1.0  0.4928625124815851  0.12743853584824022  0.7170175971554513  1.0000
  O   O1083     1.0  0.505879450372406  0.14590303535010016  0.7227657537600609  1.0000
  C   C3719     1.0  0.44715904087609937  0.13287636949834322  0.7109101807630536  1.0000
  C   C3720     1.0  0.44788084752102064  0.15895598007346104  0.7148783684190767  1.0000
  C   C3721     1.0  0.42568652914994953  0.1683290115029796  0.7251336023613917  1.0000
  O   O1084     1.0  0.4152033733404643  0.15736510108420756  0.736662575551319  1.0000
  O   O1085     1.0  0.4189409615121016  0.18667482579772277  0.7217369643677587  1.0000
  N   N1011     1.0  0.49860550483005694  0.1099402190134929  0.7253458922359938  1.0000
  C   C3722     1.0  0.521788805708425  0.11200437334491345  0.7405981032266342  1.0000
  C   C3723     1.0  0.5444439567896624  0.1136080752931851  0.7289221601235207  1.0000
  O   O1086     1.0  0.5636326525083477  0.1264259143274128  0.7379526447892855  1.0000
  C   C3724     1.0  0.5222574151321824  0.09194971809757148  0.7512779169181534  1.0000
  C   C3725     1.0  0.5129225852132779  0.09614156126348163  0.7735030337899538  1.0000
  C   C3726     1.0  0.5333216041858782  0.10818417307788296  0.7922498627163512  1.0000
  O   O1087     1.0  0.5512834147984387  0.09760576607020081  0.7976550895235268  1.0000
  O   O1088     1.0  0.5314145109358837  0.1282898728085976  0.801557957218134  1.0000
  N   N1012     1.0  0.5423919264236221  0.10084268923235837  0.7086566420942009  1.0000
  C   C3727     1.0  0.5623461394895937  0.10297335192497285  0.695462009888165  1.0000
  C   C3728     1.0  0.5654983937075717  0.12664949607416687  0.6912815323575398  1.0000
  O   O1089     1.0  0.5866374085559314  0.13567928054617842  0.6906283327433795  1.0000
  C   C3729     1.0  0.5567844871999972  0.0849172231385532  0.6738900926305247  1.0000
  C   C3730     1.0  0.5751624152700698  0.08566874092970399  0.6574621223343959  1.0000
  C   C3731     1.0  0.6003697755089528  0.07771829551047155  0.6651045578200702  1.0000
  C   C3732     1.0  0.5631703100979017  0.07115461755043823  0.6351226955301174  1.0000
  N   N1013     1.0  0.5447752837632689  0.13718153570400882  0.688799373823731  1.0000
  C   C3733     1.0  0.5465741453464215  0.15943363306019898  0.6838513867464676  1.0000
  C   C3734     1.0  0.5583975530810485  0.17788559024967304  0.7037739749783534  1.0000
  O   O1090     1.0  0.5734249607232432  0.19340656838278042  0.701847036116581  1.0000
  C   C3735     1.0  0.5204605813334704  0.1644990384989408  0.6746576021771629  1.0000
  C   C3736     1.0  0.5113624230257552  0.149695496147237  0.6515506658262462  1.0000
  S   S48       1.0  0.48005842607224913  0.15334041383113223  0.640478932366231  1.0000
  C   C3737     1.0  0.4821704680014196  0.18346228827218905  0.6453615994820784  1.0000
  N   N1014     1.0  0.551987914325252  0.1764179832828649  0.723010703615371  1.0000
  C   C3738     1.0  0.5639608582934048  0.19253469995019173  0.7429986118086729  1.0000
  C   C3739     1.0  0.5922535504106452  0.19072465015268722  0.7472280793103601  1.0000
  O   O1091     1.0  0.6071670735907998  0.20787568510069912  0.7549031747767424  1.0000
  C   C3740     1.0  0.551180552055331  0.18884311035505635  0.7622190104553366  1.0000
  C   C3741     1.0  0.5229291588877059  0.1915128002133283  0.7591326422784296  1.0000
  C   C3742     1.0  0.5104388302017835  0.18618703328743844  0.7777325012916411  1.0000
  C   C3743     1.0  0.48174689335558274  0.1840786717178992  0.7724252544265895  1.0000
  N   N1015     1.0  0.4724878191131531  0.20349581727567476  0.7644072291627731  1.0000
  N   N1016     1.0  0.5999947995745378  0.17015855503509542  0.7417575325417685  1.0000
  C   C3744     1.0  0.6268369726567329  0.1668951297198293  0.7441090511527453  1.0000
  C   C3745     1.0  0.6407075598706817  0.17834169376302897  0.7294937097859109  1.0000
  O   O1092     1.0  0.6634407645129143  0.18518974246870348  0.7348826066027325  1.0000
  C   C3746     1.0  0.6300233586696217  0.1415513542956907  0.7388671242491096  1.0000
  C   C3747     1.0  0.6572313312849662  0.13535020767259012  0.7407124131591123  1.0000
  S   S49       1.0  0.6771168999455823  0.14473324526549833  0.7670853475808299  1.0000
  C   C3748     1.0  0.6553759421842651  0.1417632213747812  0.7856362166229793  1.0000
  N   N1017     1.0  0.6276008295931643  0.18060848002745686  0.7110244906955315  1.0000
  C   C3749     1.0  0.6392272124421146  0.19065191850104954  0.695527329849581  1.0000
  C   C3750     1.0  0.6305887967069537  0.21392553488124608  0.6950864201100229  1.0000
  O   O1093     1.0  0.6302796396156283  0.22134900055737852  0.6787074397849561  1.0000
  C   C3751     1.0  0.6341328491481912  0.1741318509391574  0.6731225830838865  1.0000
  C   C3752     1.0  0.6490797390872991  0.1543160554791166  0.6721264536722922  1.0000
  N   N1018     1.0  0.6738745025458579  0.1553955848883241  0.6687951356400752  1.0000
  C   C3753     1.0  0.6433928197975125  0.13344662876861516  0.6753597917623851  1.0000
  C   C3754     1.0  0.6826978932105681  0.1358419256387136  0.6693830152928194  1.0000
  N   N1019     1.0  0.6645402367243793  0.12220144523089084  0.6733185429681345  1.0000
  N   N1020     1.0  0.6242488874780003  0.2257885201307296  0.7134413292679243  1.0000
  C   C3755     1.0  0.6197415921413532  0.24933163344678877  0.7161357776763351  1.0000
  C   C3756     1.0  0.6430416138848289  0.2629065476839673  0.7121349300396038  1.0000
  O   O1094     1.0  0.6641360943156818  0.25601111811845617  0.7138332490364203  1.0000
  C   C3757     1.0  0.6134523269534289  0.2581662561846144  0.7391773940658357  1.0000
  O   O1095     1.0  0.6024799298955671  0.2789535776648  0.7410390129661923  1.0000
  C   C3758     1.0  0.6368787606805151  0.26136407244371157  0.7560136141208147  1.0000
  N   N1021     1.0  0.6391868257777547  0.2822057359819798  0.7062887934928701  1.0000
  C   C3759     1.0  0.6603376112034052  0.29610203865072926  0.7020593259911829  1.0000
  C   C3760     1.0  0.6550782991223485  0.32075467146024306  0.7061744835603921  1.0000
  O   O1096     1.0  0.6335765009393204  0.3261859199213746  0.7072522629237564  1.0000
  C   C3761     1.0  0.6656844143515475  0.28828819269438133  0.678625789833186  1.0000
  N   N1022     1.0  0.6749957818593737  0.3355115657874743  0.7079217925282706  1.0000
  C   C3762     1.0  0.672535388637757  0.35921042017852234  0.7081994023642888  1.0000
  C   C3763     1.0  0.6672689702166821  0.36195333676268837  0.6848311861677079  1.0000
  O   O1097     1.0  0.6758201476886423  0.3495946845733307  0.6697749350613155  1.0000
  C   C3764     1.0  0.6965911038722483  0.37456316251336214  0.7202835952262523  1.0000
  C   C3765     1.0  0.7066578401869761  0.3721621368737923  0.743439521548231  1.0000
  C   C3766     1.0  0.7331033237401945  0.38594414120273235  0.7517841466191275  1.0000
  N   N1023     1.0  0.7496526151969128  0.38063234407801383  0.7352418663905206  1.0000
  C   C3767     1.0  0.7671845273104133  0.39508690129557456  0.7312736787344974  1.0000
  N   N1024     1.0  0.7715089129452171  0.41644270713832165  0.7430312717893809  1.0000
  N   N1025     1.0  0.7802381125995466  0.3881873275118739  0.7150253383322627  1.0000
  N   N1026     1.0  0.6527569049411234  0.3781563410604631  0.681744817990801  1.0000
  C   C3768     1.0  0.6493300002513165  0.3837209058893721  0.6604668405595328  1.0000
  C   C3769     1.0  0.6750884782223037  0.3895290409050469  0.654261444225011  1.0000
  O   O1098     1.0  0.6795173705736666  0.3826707290916898  0.6354003053661355  1.0000
  C   C3770     1.0  0.6321621749230144  0.40296045654980484  0.6604015205981167  1.0000
  C   C3771     1.0  0.6329516656715509  0.4122975313644974  0.6395481229160527  1.0000
  C   C3772     1.0  0.6039102449528345  0.3943458277457981  0.6610710502026309  1.0000
  N   N1027     1.0  0.6929011080889094  0.401321192810311  0.6703464847237056  1.0000
  C   C3773     1.0  0.7180644963508968  0.40747347408851775  0.6657904174149383  1.0000
  C   C3774     1.0  0.7307839232346705  0.38652444970634675  0.6566619528070496  1.0000
  O   O1099     1.0  0.7445804128425277  0.38693122646334055  0.6426181611026055  1.0000
  C   C3775     1.0  0.7339645142730995  0.4221286503858399  0.6864478552127544  1.0000
  C   C3776     1.0  0.757450921413629  0.43429708937044004  0.6826103074795633  1.0000
  C   C3777     1.0  0.752143551441142  0.4544222877237763  0.6730082731514084  1.0000
  N   N1028     1.0  0.7762684266666011  0.4660234698865792  0.6717182039134421  1.0000
  C   C3778     1.0  0.787696515581524  0.4617300657532563  0.654245114234657  1.0000
  N   N1029     1.0  0.776360100507559  0.44665479014651144  0.6363964347777298  1.0000
  N   N1030     1.0  0.810182947046648  0.4725860393708299  0.654588044032091  1.0000
  N   N1031     1.0  0.7260370080353733  0.36795573420752414  0.6641900783602459  1.0000
  C   C3779     1.0  0.7357373173671254  0.34657552898626226  0.6549146438391711  1.0000
  C   C3780     1.0  0.7250897269675558  0.33768701637908544  0.6307299281248901  1.0000
  O   O1100     1.0  0.7383951537493796  0.32827001565698377  0.6175189659285002  1.0000
  C   C3781     1.0  0.7287397717148987  0.32834601610855363  0.6669171867493646  1.0000
  C   C3782     1.0  0.7411026057541714  0.3334835680189009  0.6903670528977155  1.0000
  O   O1101     1.0  0.763955213426795  0.34115058958662414  0.6954783398785189  1.0000
  O   O1102     1.0  0.7275576988097532  0.3291605543297598  0.7039372748818935  1.0000
  N   N1032     1.0  0.7006554448033149  0.33950698675335794  0.6246878316939083  1.0000
  C   C3783     1.0  0.6894046202027426  0.33095534056632014  0.6018585051790096  1.0000
  C   C3784     1.0  0.699823781708149  0.34575800279618424  0.5880433333395216  1.0000
  O   O1103     1.0  0.7037948807359822  0.337390493809936  0.5693291643938321  1.0000
  C   C3785     1.0  0.6605364517209671  0.3296964891255947  0.5995723065294489  1.0000
  C   C3786     1.0  0.6505660450923948  0.3122406760971303  0.6113135695939784  1.0000
  C   C3787     1.0  0.6492208660689869  0.32473337748962955  0.575567220709062  1.0000
  C   C3788     1.0  0.624787895918685  0.3156271830784133  0.616735126391508  1.0000
  N   N1033     1.0  0.7050430203049178  0.3678617388015752  0.5973187678605963  1.0000
  C   C3789     1.0  0.7155429005547561  0.3833692659101071  0.5854795248539428  1.0000
  C   C3790     1.0  0.7417002572947691  0.3779891999960873  0.5799763181046432  1.0000
  O   O1104     1.0  0.7470688977945832  0.37849565352382236  0.5617683788599279  1.0000
  C   C3791     1.0  0.7165330863066253  0.4078031703240809  0.5988374569635188  1.0000
  C   C3792     1.0  0.69052774548838  0.4167815295998628  0.5988374569635188  1.0000
  C   C3793     1.0  0.6922049337133159  0.44120920094737215  0.6115748494396425  1.0000
  O   O1105     1.0  0.708010063993285  0.4474083396052373  0.6283130895524973  1.0000
  O   O1106     1.0  0.6776687793489928  0.4541428513968164  0.6049938633269786  1.0000
  N   N1034     1.0  0.7582085691500217  0.3728464569071939  0.5953428390277617  1.0000
  C   C3794     1.0  0.782634569757315  0.36551258095537387  0.5901825620758963  1.0000
  C   C3795     1.0  0.7790291138150415  0.3440339836848349  0.5718439829083488  1.0000
  O   O1107     1.0  0.792318421608696  0.34176655994768523  0.5571633215800986  1.0000
  C   C3796     1.0  0.7984926695890852  0.36093477748605984  0.61013781028849  1.0000
  C   C3797     1.0  0.8062395481724998  0.3813193332517124  0.6286396893595775  1.0000
  N   N1035     1.0  0.8126154467224624  0.40252939477569577  0.6255859811633786  1.0000
  C   C3798     1.0  0.8088772166278646  0.3835964063261624  0.6505708664050058  1.0000
  C   C3799     1.0  0.8186735368474951  0.41709478158511254  0.6447573898389802  1.0000
  N   N1036     1.0  0.8165067734457802  0.40606491957925694  0.6601892307235147  1.0000
  N   N1037     1.0  0.7614384283063491  0.3279698578702201  0.5726441524356951  1.0000
  C   C3800     1.0  0.7571273712927015  0.3061505781970921  0.5567060818501864  1.0000
  C   C3801     1.0  0.7435534715179775  0.30715115229536216  0.534399315026616  1.0000
  O   O1108     1.0  0.7430666066214586  0.29076542399040856  0.5188205042288954  1.0000
  C   C3802     1.0  0.7420632480622893  0.28906896339968885  0.5658508764484291  1.0000
  C   C3803     1.0  0.7592637643205529  0.2839971345380542  0.5847446752880127  1.0000
  C   C3804     1.0  0.7443748018895133  0.27541594538306263  0.6006337559024593  1.0000
  C   C3805     1.0  0.7759147482825164  0.26675798494362263  0.5750609910080878  1.0000
  N   N1038     1.0  0.7325376100119262  0.32559612947226085  0.5321294463674093  1.0000
  C   C3806     1.0  0.717325516011907  0.32610564244474244  0.5116842984441954  1.0000
  C   C3807     1.0  0.7264609137045972  0.34495374216226354  0.5016413543764824  1.0000
  O   O1109     1.0  0.7200290169897776  0.3429570049042264  0.4820290359613226  1.0000
  C   C3808     1.0  0.6892486406631575  0.3280372275389245  0.514427736823668  1.0000
  O   O1110     1.0  0.686998927662033  0.347568086072049  0.531214966907585  1.0000
  C   C3809     1.0  0.6774502153092516  0.3071835690552162  0.5204371732739419  1.0000
  N   N1039     1.0  0.7419717216383778  0.36262402500667884  0.5140521470455259  1.0000
  C   C3810     1.0  0.7473631606159773  0.3821338101419206  0.5053482621868415  1.0000
  C   C3811     1.0  0.7256118217746168  0.3964819579288648  0.503796913103211  1.0000
  O   O1111     1.0  0.7258334668498622  0.41046279720711953  0.4924312398168237  1.0000
  N   N1040     1.0  0.706536088043451  0.393154788755344  0.5144930567850841  1.0000
  C   C3812     1.0  0.6847560083242514  0.40604294254162293  0.5144114068333141  1.0000
  C   C3813     1.0  0.6876247166169609  0.4243471950362048  0.5355260843610422  1.0000
  O   O1112     1.0  0.7005947683289748  0.4221889926372898  0.5521826745221272  1.0000
  C   C3814     1.0  0.6604682460879492  0.3903756110229519  0.5119782382705673  1.0000
  C   C3815     1.0  0.6549681447956635  0.37112468389104375  0.4912228205306274  1.0000
  C   C3816     1.0  0.6319190808572381  0.35582915251817665  0.4920719800290355  1.0000
  C   C3817     1.0  0.6510924816512333  0.3807400485593991  0.4707613426170594  1.0000
  N   N1041     1.0  0.6749871430246093  0.4422323237058457  0.5347749048047581  1.0000
  C   C3818     1.0  0.6745336476981343  0.460732066170353  0.5538973235092977  1.0000
  C   C3819     1.0  0.6471961470102877  0.46509195007451987  0.5557589424096542  1.0000
  O   O1113     1.0  0.6344179517606279  0.4714900331550887  0.5412089210042359  1.0000
  C   C3820     1.0  0.6901078096006575  0.48221706786502755  0.5522806544642511  1.0000
  C   C3821     1.0  0.6963908564142903  0.4995039741441424  0.5739995416350775  1.0000
  O   O1114     1.0  0.7099004741611564  0.49448361806784447  0.5896600023845681  1.0000
  O   O1115     1.0  0.6876359728019549  0.5182080280867251  0.5755508907187079  1.0000
  N   N1042     1.0  0.6385959838275237  0.46252189410146444  0.5739342216736615  1.0000
  C   C3822     1.0  0.6118616868998905  0.4617940477414747  0.5765633501206562  1.0000
  C   C3823     1.0  0.605819973614828  0.48412614718453095  0.5902642120276662  1.0000
  O   O1116     1.0  0.622587030477739  0.4986901303919298  0.6008950357481233  1.0000
  C   C3824     1.0  0.6045694694593835  0.44268866027672704  0.5873574737446534  1.0000
  C   C3825     1.0  0.6058628421149643  0.4195839077603551  0.5735912918762274  1.0000
  C   C3826     1.0  0.5860870792320763  0.4089265930308425  0.5574409314161166  1.0000
  C   C3827     1.0  0.6272240759131615  0.4086062084896756  0.5765960101013643  1.0000
  C   C3828     1.0  0.5877858389947219  0.38751647860837285  0.5446708789592849  1.0000
  C   C3829     1.0  0.6289298814590241  0.38714613435727624  0.5640219175287806  1.0000
  C   C3830     1.0  0.6097616716218645  0.3767015433107823  0.5481981568757499  1.0000
  N   N1043     1.0  0.5812180628053599  0.4864289186541348  0.5900682521434182  1.0000
  C   C3831     1.0  0.5716681119687768  0.505883129486947  0.6038344340118442  1.0000
  C   C3832     1.0  0.581489658400107  0.5284855252890941  0.599898906336529  1.0000
  O   O1117     1.0  0.5885537182827112  0.5450119686847721  0.6151837773078774  1.0000
  C   C3833     1.0  0.5778823297344138  0.5063318722748705  0.6280028197357712  1.0000
  C   C3834     1.0  0.5675049318620151  0.4851794214244741  0.6336040064271948  1.0000
  C   C3835     1.0  0.5415903141181014  0.4791257368471479  0.63048497826958  1.0000
  C   C3836     1.0  0.583442046764824  0.47134319410243325  0.6421772513630475  1.0000
  C   C3837     1.0  0.5318090250562305  0.4601861395063034  0.6357269051732155  1.0000
  C   C3838     1.0  0.5736206138421736  0.45193869073884  0.647533488199161  1.0000
  C   C3839     1.0  0.5477390804380864  0.44647439274871503  0.64394089032128  1.0000
  O   O1118     1.0  0.5371775293243615  0.4275273062102918  0.6489541973599594  1.0000
  N   N1044     1.0  0.5818017938348533  0.5296611201381963  0.5794210984326071  1.0000
  C   C3840     1.0  0.592468817648528  0.5508119770301464  0.57559988068977  1.0000
  C   C3841     1.0  0.5737216490658532  0.5683590640315733  0.5751426409598579  1.0000
  O   O1119     1.0  0.5818568372002053  0.5882216788737579  0.5769226099084444  1.0000
  C   C3842     1.0  0.6039725984688237  0.5460122098437203  0.5545015331523958  1.0000
  C   C3843     1.0  0.6276529060514869  0.5342377150655031  0.5572776315125766  1.0000
  C   C3844     1.0  0.6339368685946831  0.5234380246989555  0.5355260843610422  1.0000
  N   N1045     1.0  0.6439173769701048  0.5403431532592267  0.5250095705730632  1.0000
  C   C3845     1.0  0.668238735654572  0.547756074996616  0.5273120992129778  1.0000
  N   N1046     1.0  0.6852646892739609  0.5398518541879025  0.5397718818530834  1.0000
  N   N1047     1.0  0.675610204292479  0.5630776948846586  0.5170405352803089  1.0000
  N   N1048     1.0  0.5491336186918787  0.5620583834050528  0.5734116619823333  1.0000
  C   C3846     1.0  0.5304315066979408  0.5784080789157234  0.5732973520498553  1.0000
  C   C3847     1.0  0.5139325983143672  0.5753527428790403  0.5902478820373123  1.0000
  O   O1120     1.0  0.49577234470430964  0.5607788723888055  0.5852672349793409  1.0000
  C   C3848     1.0  0.5148139894626469  0.5751214866507174  0.5508109553323908  1.0000
  C   C3849     1.0  0.5102515599224089  0.5969724075472386  0.5440503393258327  1.0000
  C   C3850     1.0  0.48815308918404476  0.6074322006392506  0.5538483335382356  1.0000
  C   C3851     1.0  0.4737200541753682  0.620129546449147  0.5389063923643213  1.0000
  N   N1049     1.0  0.45126291580843336  0.6292878891159362  0.548165496895042  1.0000
  N   N1050     1.0  0.5206596022637642  0.5887275993297222  0.6101868002595521  1.0000
  C   C3852     1.0  0.5058308461438981  0.5891889510178959  0.6278558498225852  1.0000
  C   C3853     1.0  0.5053045076728511  0.6138711076121783  0.6394338129835746  1.0000
  O   O1121     1.0  0.5188647600895925  0.6291190297712659  0.6354819553179054  1.0000
  C   C3854     1.0  0.516772659470181  0.5763005925800135  0.6446757398872102  1.0000
  O   O1122     1.0  0.5375108225721964  0.5903181117168655  0.6590624613890883  1.0000
  C   C3855     1.0  0.5260314016073065  0.5539962279032686  0.633865286272859  1.0000
  N   N1051     1.0  0.48992256204662155  0.6177865594162721  0.654261444225011  1.0000
  C   C3856     1.0  0.4904956342926603  0.6403356505291006  0.668239915968039  1.0000
  C   C3857     1.0  0.5106489004927279  0.6447851192695695  0.688325804103465  1.0000
  O   O1123     1.0  0.5120164674293608  0.6627544847188981  0.7023369358272009  1.0000
  C   C3858     1.0  0.4645673897113476  0.6437619872883593  0.6753434617720311  1.0000
  O   O1124     1.0  0.45897852016631735  0.6295835644883222  0.6893545934957672  1.0000
  N   N1052     1.0  0.5261829908221911  0.628977315309292  0.6899588031388654  1.0000
  C   C3859     1.0  0.5452551316186003  0.6308529216858482  0.7088852619591569  1.0000
  C   C3860     1.0  0.5706497151794991  0.6413915322094866  0.70563559387871  1.0000
  O   O1125     1.0  0.5765917199209555  0.639703250950613  0.6872643547304547  1.0000
  C   C3861     1.0  0.5480692506510421  0.6075654878633943  0.7136372891521723  1.0000
  C   C3862     1.0  0.5230693949396996  0.5929234913511796  0.7119553001457098  1.0000
  C   C3863     1.0  0.5039722583001669  0.6058906147435711  0.7244314127761695  1.0000
  N   N1053     1.0  0.5125620130967921  0.6115543708605574  0.7478812789245204  1.0000
  C   C3864     1.0  0.5050085009273055  0.6283434167661442  0.7620393805614425  1.0000
  N   N1054     1.0  0.4886648516546497  0.6413808359118298  0.7551481246320524  1.0000
  N   N1055     1.0  0.5138833299985444  0.6320540384999946  0.7830560781470466  1.0000
  N   N1056     1.0  0.5857318689938836  0.652441278069975  0.7237618831716552  1.0000
  C   C3865     1.0  0.6114129168888518  0.6607902116253942  0.722618783846875  1.0000
  C   C3866     1.0  0.6262906207248815  0.6408674405534619  0.7152376282068649  1.0000
  O   O1126     1.0  0.6208719093993669  0.6222203216298019  0.7190098559786399  1.0000
  C   C3867     1.0  0.6242414522557767  0.6749760854410676  0.7447622507669054  1.0000
  O   O1127     1.0  0.6263022768539326  0.6615244955190236  0.7603084015839179  1.0000
  N   N1057     1.0  0.6456173425166771  0.6451590652599202  0.7050477142259658  1.0000
  C   C3868     1.0  0.6611334356961147  0.6273472631979697  0.6970296889621495  1.0000
  C   C3869     1.0  0.6745093287362726  0.6186297887050862  0.7156785379464229  1.0000
  O   O1128     1.0  0.6757528936893111  0.598060924380973  0.7136372891521723  1.0000
  C   C3870     1.0  0.6799883544118919  0.6360800396181682  0.6838677167368216  1.0000
  C   C3871     1.0  0.6950975531821314  0.6181358157898829  0.6722734235854783  1.0000
  C   C3872     1.0  0.6834644552899367  0.5972002710226373  0.6602218907042228  1.0000
  C   C3873     1.0  0.7209453933134751  0.6223171199050604  0.6734165229102586  1.0000
  C   C3874     1.0  0.6973260444058118  0.5809711878012797  0.6496400569548276  1.0000
  C   C3875     1.0  0.7348415719616782  0.606366954602923  0.6630306490451114  1.0000
  C   C3876     1.0  0.7229535489915303  0.5857513327809479  0.651207736028812  1.0000
  O   O1129     1.0  0.7369781944927111  0.5699120066622589  0.640870852134727  1.0000
  N   N1058     1.0  0.6845308697037497  0.6338923894295134  0.7340824370753862  1.0000
  C   C3877     1.0  0.696450448459056  0.6263133920335779  0.7528129360114297  1.0000
  C   C3878     1.0  0.6779538851089137  0.6108807711960083  0.7605206914585201  1.0000
  O   O1130     1.0  0.6844590452512209  0.5932920843969054  0.7649787788251633  1.0000
  C   C3879     1.0  0.7077999677506657  0.6464626280513294  0.7716250848992432  1.0000
  O   O1131     1.0  0.7270966574612718  0.6593794159089446  0.7651747387094113  1.0000
  N   N1059     1.0  0.6546082751941034  0.6168256292587037  0.7616801207736543  1.0000
  C   C3880     1.0  0.6354624881030576  0.6013727628524014  0.7667260877930419  1.0000
  C   C3881     1.0  0.6316381337995056  0.5786678164876126  0.750069497631957  1.0000
  O   O1132     1.0  0.6292054404412402  0.5608643933366732  0.7561115940629387  1.0000
  C   C3882     1.0  0.6104253295793791  0.611651107067106  0.7677222172046361  1.0000
  C   C3883     1.0  0.5900869494267729  0.5965667387127433  0.774515493191902  1.0000
  C   C3884     1.0  0.565375415405047  0.6073335842019008  0.7770139817160648  1.0000
  O   O1133     1.0  0.5662997146508784  0.626805832874617  0.7890001946359043  1.0000
  O   O1134     1.0  0.5450635849948111  0.5963612282842533  0.7668077377448119  1.0000
  N   N1060     1.0  0.6312122544452793  0.5789037263035564  0.7290528000463528  1.0000
  C   C3885     1.0  0.6279846498041693  0.5577370155981917  0.7121675900203119  1.0000
  C   C3886     1.0  0.6506892547781261  0.5443469618055738  0.7149273583901387  1.0000
  O   O1135     1.0  0.6479136796812128  0.5233444519692483  0.7109428407437615  1.0000
  C   C3887     1.0  0.6233867958523729  0.5625175079967847  0.6892566135536432  1.0000
  C   C3888     1.0  0.5961663946775079  0.5680647153440362  0.6836554268622195  1.0000
  C   C3889     1.0  0.6292870726830189  0.5425861819525878  0.6717182039134421  1.0000
  C   C3890     1.0  0.5753507895009488  0.5512791855910819  0.6876399445085968  1.0000
  N   N1061     1.0  0.6734024959331764  0.5560947400030586  0.7217696243484667  1.0000
  C   C3891     1.0  0.6956907352868447  0.5442511200160398  0.7255908420913038  1.0000
  C   C3892     1.0  0.69340187733493  0.5317989193525986  0.743570161471063  1.0000
  O   O1136     1.0  0.7008354544340023  0.5128065740965457  0.7421821122909726  1.0000
  C   C3893     1.0  0.7196726851199147  0.5608203051635364  0.7313879886669754  1.0000
  C   C3894     1.0  0.7294989415500466  0.5687984330563908  0.7125431797984539  1.0000
  C   C3895     1.0  0.7540602105642957  0.5835747688255438  0.7210511047728905  1.0000
  C   C3896     1.0  0.7332628577559426  0.5487940516439709  0.6947108303318807  1.0000
  N   N1062     1.0  0.6827434619144599  0.5421867704401806  0.760422711516396  1.0000
  C   C3897     1.0  0.6773722233279853  0.5309665238718962  0.777536541407393  1.0000
  C   C3898     1.0  0.6586851059587339  0.5099679584901671  0.7684733967609203  1.0000
  O   O1137     1.0  0.6623454372308535  0.4920391364709932  0.7738786235680959  1.0000
  C   C3899     1.0  0.6669074929391443  0.5472505294433585  0.7953525608836122  1.0000
  O   O1138     1.0  0.6850955317339349  0.5665872160219538  0.804742305337165  1.0000
  C   C3900     1.0  0.6607232001773955  0.5353180905649061  0.8127766605913354  1.0000
  N   N1063     1.0  0.6380117429425007  0.5120911319852028  0.7550501446899285  1.0000
  C   C3901     1.0  0.619079629446102  0.49280992923440486  0.7450235306125694  1.0000
  C   C3902     1.0  0.630973997462376  0.47306512418107965  0.7321391682232598  1.0000
  O   O1139     1.0  0.624783920196549  0.45332547682794044  0.7330373176927301  1.0000
  C   C3903     1.0  0.5978638035967974  0.5000511276112443  0.7303591992746732  1.0000
  C   C3904     1.0  0.575538703084536  0.48231297568914194  0.7186016062197897  1.0000
  C   C3905     1.0  0.5595589907749664  0.47568973608655785  0.7354214962844147  1.0000
  C   C3906     1.0  0.5589741125039654  0.4902749499387638  0.7009488866471106  1.0000
  N   N1064     1.0  0.6485933937986387  0.4780235873018621  0.7203979051587304  1.0000
  C   C3907     1.0  0.6586991164690326  0.45961919173706056  0.7061581535700381  1.0000
  C   C3908     1.0  0.6770355428166605  0.44779643108915684  0.7188628860654538  1.0000
  O   O1140     1.0  0.6830953083879031  0.4292360375050734  0.7096854314865031  1.0000
  C   C3909     1.0  0.67182110832892  0.4684044877185241  0.6894362434475372  1.0000
  C   C3910     1.0  0.6546134210625003  0.4766873032171989  0.6730082731514084  1.0000
  C   C3911     1.0  0.6710167080330451  0.4892834258870147  0.6614303099904191  1.0000
  C   C3912     1.0  0.657948333696871  0.48967816951662607  0.6395971128871147  1.0000
  N   N1065     1.0  0.675977164127465  0.49886095444745493  0.627121000256655  1.0000
  N   N1066     1.0  0.6860577996633261  0.4580856521819262  0.7395529838439778  1.0000
  C   C3913     1.0  0.7034919916874738  0.44793702711489924  0.7532375157606339  1.0000
  C   C3914     1.0  0.6907574155676784  0.43755491890753545  0.7692245763172045  1.0000
  O   O1141     1.0  0.7032872556797297  0.4280812495179686  0.7813904191309381  1.0000
  C   C3915     1.0  0.7257419190138611  0.4652502312643752  0.7654686785357835  1.0000
  O   O1142     1.0  0.7171721393948065  0.48385132534110936  0.7799043900087237  1.0000
  C   C3916     1.0  0.7395441705814253  0.47418121927191315  0.7494652879888588  1.0000
  N   N1067     1.0  0.6661586475527326  0.4384721363479576  0.7690776064040186  1.0000
  C   C3917     1.0  0.6523258607128408  0.42665217820050755  0.7821905886582844  1.0000
  C   C3918     1.0  0.6509038737496866  0.40104974472105653  0.7729968040889796  1.0000
  O   O1143     1.0  0.6470533638119573  0.3930432921782762  0.7532211857702799  1.0000
  C   C3919     1.0  0.6259525786534492  0.43470541212791713  0.7822395786293463  1.0000
  C   C3920     1.0  0.608016749691969  0.4214687346189633  0.7922988526874133  1.0000
  C   C3921     1.0  0.6081664226099694  0.42648172508181875  0.814850569366294  1.0000
  C   C3922     1.0  0.5905060644733726  0.4041704279816055  0.7792675203849175  1.0000
  C   C3923     1.0  0.5916047490291945  0.4143001776035576  0.8240606839259526  1.0000
  C   C3924     1.0  0.573881557442879  0.39201001108192707  0.7882980050506821  1.0000
  C   C3925     1.0  0.5745141711054847  0.3970691119783298  0.8105721118935446  1.0000
  O   O1144     1.0  0.5579995396313977  0.38472459117179403  0.8193249867232912  1.0000
  N   N1068     1.0  0.6546465625630518  0.38807515583342583  0.7872202256873179  1.0000
  C   C3926     1.0  0.6494309925187256  0.3632036947465754  0.780835199458902  1.0000
  C   C3927     1.0  0.6301492353707768  0.3557328292118491  0.7940461616552918  1.0000
  O   O1145     1.0  0.6347243195139042  0.36023568822825847  0.8141483797810717  1.0000
  C   C3928     1.0  0.6733949377940771  0.3509768885506848  0.7836439577997908  1.0000
  C   C3929     1.0  0.6732470884763475  0.32472241899081355  0.7803616297386358  1.0000
  C   C3930     1.0  0.6788003611729839  0.3110049626469389  0.7595735520179877  1.0000
  C   C3931     1.0  0.6921473405067975  0.3209281074753654  0.7995656983949454  1.0000
  N   N1069     1.0  0.6086197817596339  0.34448490505795326  0.7825988384171345  1.0000
  C   C3932     1.0  0.5891732974715165  0.33452461859060506  0.7926744424655554  1.0000
  C   C3933     1.0  0.5975936378556217  0.3129568027170181  0.7983246191280411  1.0000
  O   O1146     1.0  0.5999134441279355  0.29637487549354263  0.7836766177804988  1.0000
  C   C3934     1.0  0.5643227325039244  0.3296291047928593  0.7770793016774808  1.0000
  C   C3935     1.0  0.5417755264901915  0.32494583878706096  0.7876121454558139  1.0000
  N   N1070     1.0  0.5436716793252361  0.323454669862481  0.8090697527809763  1.0000
  C   C3936     1.0  0.5168265820598146  0.32135393555425945  0.7795777902016436  1.0000
  C   C3937     1.0  0.5208135177313225  0.3191846896231909  0.8137891199932836  1.0000
  N   N1071     1.0  0.5041985289018642  0.3178146564681023  0.7961690604013124  1.0000
  N   N1072     1.0  0.6019547168722179  0.3128847036500918  0.8195372765978932  1.0000
  C   C3938     1.0  0.6136604775323992  0.294522060057452  0.8269021022475495  1.0000
  C   C3939     1.0  0.5957902748286501  0.27823946279159  0.8342995878779136  1.0000
  O   O1147     1.0  0.6027202916091252  0.25980406836412717  0.836144876787916  1.0000
  C   C3940     1.0  0.6352175723007016  0.30414700258723293  0.8457795710967789  1.0000
  O   O1148     1.0  0.6248792935647283  0.31130628120217463  0.8656531693576027  1.0000
  C   C3941     1.0  0.6504044176807574  0.324070929908483  0.8412561637687196  1.0000
  N   N1073     1.0  0.5734770310115823  0.28452281452680306  0.8388719851770349  1.0000
  C   C3942     1.0  0.5539335535304457  0.26953681922296013  0.8444731718684586  1.0000
  C   C3943     1.0  0.5610532070599749  0.2628857020867435  0.8661430690682229  1.0000
  O   O1149     1.0  0.5452955998613563  0.2510223694183353  0.8722668154509747  1.0000
  C   C3944     1.0  0.5467048265436161  0.24789784176941437  0.8261509226912651  1.0000
  C   C3945     1.0  0.5412810868339417  0.2526266996165921  0.8039584658001727  1.0000
  C   C3946     1.0  0.5183251720469477  0.2598137368846127  0.7972141797839687  1.0000
  C   C3947     1.0  0.5592328367879654  0.2504601136030838  0.7898820141150206  1.0000
  C   C3948     1.0  0.5131349328170124  0.2645072755896861  0.7770629716871269  1.0000
  C   C3949     1.0  0.5541977575572676  0.25515469908408583  0.7694042062110986  1.0000
  C   C3950     1.0  0.5310681493226728  0.2622373395903079  0.7631661498958688  1.0000
  O   O1150     1.0  0.525538043511675  0.2670376588472621  0.743047601779735  1.0000
  C   C3951     1.0  0.9340387528265893  0.3907762254516439  0.6909712625408138  1.0000
  C   C3952     1.0  0.9244061720023888  0.37826327867484016  0.6676193763345869  1.0000
  C   C3953     1.0  0.946552307664252  0.37110686914821644  0.6558291232989955  1.0000
  C   C3954     1.0  0.9661599513987269  0.3912924187913112  0.658180641909972  1.0000
  C   C3955     1.0  0.9732632868923661  0.40440420643260566  0.6819571078654031  1.0000
  C   C3956     1.0  0.988917516488408  0.42672704195480093  0.6844392663992118  1.0000
  C   C3957     1.0  0.8819147848765246  0.3581777436298188  0.6597156610032485  1.0000
  C   C3958     1.0  0.8660574005349225  0.3366834161300011  0.6591114513601504  1.0000
  N   N1074     1.0  0.9066236039849755  0.35874389179140537  0.6664926070001606  1.0000
  O   O1151     1.0  0.9374362842255095  0.3613495048521006  0.6333753865622389  1.0000
  O   O1152     1.0  0.9885190931131718  0.383105683027706  0.6510444361252721  1.0000
  O   O1153     1.0  0.9509215733353408  0.4099162754025889  0.6911672224250618  1.0000
  O   O1154     1.0  0.9761388951346154  0.44012414723586873  0.6717835238748581  1.0000
  O   O1155     1.0  0.8726981856439644  0.37441648578006925  0.654457404109259  1.0000
  C   C3959     1.0  0.9965628406638455  0.3915655319460308  0.6345348158773731  1.0000
  C   C3960     1.0  0.024628840897206516  0.38799511611790133  0.6351880154915334  1.0000
  C   C3961     1.0  0.034801918573411236  0.39479459930849964  0.6159676168448698  1.0000
  C   C3962     1.0  0.01796056264700089  0.383101624580566  0.5945916594714775  1.0000
  C   C3963     1.0  0.9907181139399545  0.38781151669246505  0.5962736484779401  1.0000
  C   C3964     1.0  0.9724155121489986  0.3761271588210781  0.576057120419682  1.0000
  C   C3965     1.0  0.04514045808512729  0.39160707926658916  0.6728776332285764  1.0000
  C   C3966     1.0  0.05948782371148145  0.40727470572706753  0.6931758112386043  1.0000
  N   N1075     1.0  0.03909554516263801  0.40078786582377507  0.6558944432604115  1.0000
  O   O1156     1.0  0.05970223499070184  0.3884991049725149  0.6151837773078774  1.0000
  O   O1157     1.0  0.02585218598833319  0.3912607160524919  0.5770042598602144  1.0000
  O   O1158     1.0  0.9828963560938216  0.37965585578655  0.6140733379638053  1.0000
  O   O1159     1.0  0.9729186978649742  0.3522398992424869  0.5717133429855168  1.0000
  O   O1160     1.0  0.03947037476194852  0.3714132838882121  0.6718161838555661  1.0000
  Zn  Zn1       1.0  0.9736909069062671  0.26929141169091797  0.053154118602285534  1.0000
  Zn  Zn2       1.0  0.9836195368156322  0.33208211618421146  0.02758135370791406  1.0000
  C   C3967     1.0  0.0905748085249081  0.46236806922608314  0.9746558549705846  1.0000
  O   O1161     1.0  0.10160267964538473  0.4254365579601347  0.9639433812983574  1.0000
  C   C3968     1.0  0.09047488232389637  0.48240392050422504  0.9903653056911372  1.0000
  O   O1162     1.0  0.12709709879181585  0.4692834396424989  0.0372813679781929  1.0000
  C   C3969     1.0  0.10240416784323449  0.48413679912123886  0.01149631320921936  1.0000
  C   C3970     1.0  0.1134954389348856  0.4661210709976525  0.017081169910288994  1.0000
  C   C3971     1.0  0.11237427576369509  0.4452284630422361  0.0018942788810645537  1.0000
  C   C3972     1.0  0.10156097937169666  0.4444008353261263  0.9805019915173183  1.0000
  C   C3973     1.0  0.11766484695878013  0.42280016968713885  0.0066626360644339465  1.0000
  C   C3974     1.0  0.1293117938047835  0.42216395412620117  0.029442972608270605  1.0000
  C   C3975     1.0  0.14379221410254794  0.40670485465343437  0.0338683999942059  1.0000
  C   C3976     1.0  0.15146776805902523  0.3888215245938433  0.016101370489048705  1.0000
  C   C3977     1.0  0.13754631435858017  0.38734907405184177  0.993239383993442  1.0000
  C   C3978     1.0  0.13293459963734966  0.4106912351643897  0.9893691762795429  1.0000
  C   C3979     1.0  0.12184564376272626  0.4105818710588337  0.965772340218006  1.0000
  C   C3980     1.0  0.10831475333157457  0.38772406700254897  0.9531982476454223  1.0000
  C   C3981     1.0  0.14203016463791845  0.41800900995009477  0.9533778775393164  1.0000
  C   C3982     1.0  0.15276443428593858  0.40528682198011656  0.056877356402998624  1.0000
  C   C3983     1.0  0.07696358686844011  0.5015835242900957  0.9846334790768815  1.0000
  C   C3984     1.0  0.049185688922637326  0.4948558642233736  0.9750314447487267  1.0000
  C   C3985     1.0  0.031887945964271115  0.49585321222280826  0.9922105946011397  1.0000
  C   C3986     1.0  0.005018573627314534  0.4991689953332611  0.9837843195784732  1.0000
  C   C3987     1.0  0.004364372397881156  0.5158639600618492  0.9695772279704891  1.0000
  C   C3988     1.0  0.24762003120641324  0.40332180230935777  0.9427143938381513  1.0000
  C   C3989     1.0  0.23090792662853832  0.4226366493607742  0.9512223188125878  1.0000
  C   C3990     1.0  0.2070246861290298  0.4169875195164382  0.9360354277833633  1.0000
  C   C3991     1.0  0.21081631191861358  0.41736306435324555  0.911213842445276  1.0000
  C   C3992     1.0  0.2242058443368152  0.43998913629013614  0.9101523930722657  1.0000
  C   C3993     1.0  0.2281633373057181  0.44034334119317525  0.8855757575894886  1.0000
  C   C3994     1.0  0.242156237309581  0.4194526031392555  0.8762186731166438  1.0000
  C   C3995     1.0  0.2010562809611289  0.43689672557125175  0.8719728756246026  1.0000
  C   C3996     1.0  0.20156790536909971  0.4428456518571077  0.8500580285695282  1.0000
  C   C3997     1.0  0.21298180575229403  0.4667497740275279  0.8542711660808614  1.0000
  O   O1163     1.0  0.21093221579460994  0.47396202909604884  0.8345282077428696  1.0000
  C   C3998     1.0  0.2409212013400601  0.4699196128711958  0.8644447500714064  1.0000
  C   C3999     1.0  0.2436677877254027  0.4614948594446146  0.8853961276955945  1.0000
  C   C4000     1.0  0.2672456990053394  0.4706618855558148  0.9034897570078317  1.0000
  C   C4001     1.0  0.2620784257388109  0.47057300478009895  0.9260904636577744  1.0000
  O   O1164     1.0  0.24500959716663218  0.48575852009508524  0.931348720551764  1.0000
  C   C4002     1.0  0.2498758322046704  0.44568299196475886  0.9267763232526426  1.0000
  C   C4003     1.0  0.24559326085068167  0.4453228918225875  0.9493443699218772  1.0000
  C   C4004     1.0  0.26968070395569815  0.4503397791509322  0.9693975980765951  1.0000
  C   C4005     1.0  0.25710099765026156  0.44038524515539496  0.9892222063663568  1.0000
  C   C4006     1.0  0.23206636249028256  0.4249772283479434  0.9777095631667835  1.0000
  C   C4007     1.0  0.2326650438866713  0.40486943976895384  0.9857275884305998  1.0000
  C   C4008     1.0  0.2086582556010871  0.3877187426482741  0.9766644437841272  1.0000
  C   C4009     1.0  0.23225344264698888  0.4146135338053301  0.011039073479307228  1.0000
  C   C4010     1.0  0.23101070340847413  0.3962890784431125  0.024445995559945147  1.0000
  C   C4011     1.0  0.22668538855963466  0.4095704103064783  0.047912191698650006  1.0000
  C   C4012     1.0  0.22740564480383266  0.39398224345393046  0.06438915196584082  1.0000
  C   C4013     1.0  0.25545038088734034  0.39023988531847253  0.07123141792416882  1.0000
  C   C4014     1.0  0.21129703690666302  0.3709161454674594  0.05395428812963177  1.0000
  I   I1        1.0  0.806612813605385  0.2969400353508965  0.37005429210391194  1.0000
  I   I2        1.0  0.005179479318006997  0.18172947061731715  0.897415000596142  1.0000
  I   I3        1.0  0.11850298307823898  0.10939100436632591  0.8556592152609518  1.0000
  I   I4        1.0  0.6966204656559347  0.5717244954018373  0.2323104427760719  1.0000
  S   S50       1.0  0.39394520051982107  0.09509593420575353  0.4340515243012567  1.0000
  C   C4015     1.0  0.39478697669334517  0.06617298332961748  0.43604378312444525  1.0000
  N   N1076     1.0  0.3967272667409002  0.047610305837248484  0.43784008206338576  1.0000
  C   C4016     1.0  0.02274671508857041  0.7424601167022566  0.4892138510252749  1.0000
  O   O1165     1.0  0.02020618725296772  0.7655021198436129  0.4969052764820112  1.0000
  C   C4017     1.0  0.007489012715627514  0.7343874366293429  0.4657313248962161  1.0000
  O   O1166     1.0  0.014972517540026377  0.7143676438162193  0.45399006183168666  1.0000
  C   C4018     1.0  0.9794714873398265  0.7312156849986535  0.46898099297666307  1.0000
  O   O1167     1.0  0.9697065370621634  0.7096744382348956  0.4560803005969993  1.0000
  C   C4019     1.0  0.230481660443828  0.42637629113568415  0.7925927925137853  1.0000
  O   O1168     1.0  0.22589218215144147  0.4077677791528179  0.8022764767937102  1.0000
  C   C4020     1.0  0.2071691578741002  0.4285560428235532  0.7756259325359744  1.0000
  O   O1169     1.0  0.21233410019338964  0.44575184648737654  0.7654850085261374  1.0000
  C   C4021     1.0  0.20150626625944193  0.40595591193093433  0.7583324727510834  1.0000
  O   O1170     1.0  0.18506688690917278  0.4103290613912585  0.7406634231880502  1.0000
  C   C4022     1.0  0.8321117574468324  0.19018379145190376  0.6389275832826005  1.0000
  O   O1171     1.0  0.8314606600421413  0.2135184014825909  0.6438265803888019  1.0000
  C   C4023     1.0  0.8315971992857489  0.1834293243298171  0.6607771103762589  1.0000
  O   O1172     1.0  0.81489281362467  0.16453359639975917  0.6574621223343959  1.0000
  C   C4024     1.0  0.8238544402225154  0.20502223893892269  0.6767968309135375  1.0000
  O   O1173     1.0  0.8257077346059725  0.2021741357613223  0.6983524181808238  1.0000
  C   C4025     1.0  0.2657411930378948  0.37875103263432597  0.760422711516396  1.0000
  O   O1174     1.0  0.2616715266334938  0.3830545524044276  0.7824355385135944  1.0000
  C   C4026     1.0  0.24267707672823957  0.36375863779435774  0.7462156199084118  1.0000
  O   O1175     1.0  0.2486695303443084  0.3468677549783082  0.729199769959539  1.0000
  C   C4027     1.0  0.22762744411903457  0.3544750484338198  0.7619250706289644  1.0000
  O   O1176     1.0  0.2131729093306084  0.33446140780412126  0.7495469379406288  1.0000
  C   C4028     1.0  0.3729762430766763  0.9472631947299845  0.23978995905001588  1.0000
  O   O1177     1.0  0.38773345942207327  0.9569456670503131  0.2599574971372117  1.0000
  C   C4029     1.0  0.38375228504984704  0.9575800745940364  0.22234952935193875  1.0000
  O   O1178     1.0  0.3689473336921667  0.9495229533927301  0.20170842154447677  1.0000
  C   C4030     1.0  0.3844472515745697  0.9836486702273504  0.23103708422026925  1.0000
  O   O1179     1.0  0.36854321112500443  0.9912808009549334  0.21496837371192856  1.0000
  P   P1        1.0  0.010241358683441337  0.26944896567113163  0.025801384759327542  1.0000
  O   O1180     1.0  0.0024669972514456654  0.2694021558805804  0.001926938861772563  1.0000
  O   O1181     1.0  0.0006269480083098915  0.24734423518250162  0.030945331720839044  1.0000
  O   O1182     1.0  0.9994163275365359  0.28947913106532686  0.03943692670492153  1.0000
  O   O1183     1.0  0.03877134654491146  0.27269383925790813  0.03052075197163492  1.0000
  C   C4031     1.0  0.8514113072067795  0.6459356575309659  0.8526708270261689  1.0000
  O   O1184     1.0  0.874687642863312  0.6439947513352231  0.8643794301099904  1.0000
  C   C4032     1.0  0.8387321030370218  0.6218446432484097  0.8413541437108436  1.0000
  O   O1185     1.0  0.8187433946807644  0.6219980291236663  0.825563043038521  1.0000
  C   C4033     1.0  0.8585044903850151  0.6075784056317707  0.8314581695563168  1.0000
  O   O1186     1.0  0.8441999860004059  0.5901286402013525  0.8143769996460277  1.0000
  S   S51       1.0  0.6155903365589668  0.2415495421530936  0.900844298570483  1.0000
  C   C4034     1.0  0.6309922293842267  0.22575174435620582  0.9185949980852862  1.0000
  N   N1077     1.0  0.643736272075166  0.21670323209445116  0.9302219512173376  1.0000
  C   C4035     1.0  0.7084333346823799  0.2915699944145956  0.44736046643977045  1.0000
  O   O1187     1.0  0.7025138256274549  0.3132110274224841  0.44451904811817367  1.0000
  C   C4036     1.0  0.6826721292586344  0.2791496300345582  0.44899346547517105  1.0000
  O   O1188     1.0  0.6848988776504721  0.26132531895415423  0.4589874195718219  1.0000
  C   C4037     1.0  0.6685950145687305  0.29808931296202423  0.4616818679802326  1.0000
  O   O1189     1.0  0.6461765620641673  0.2877333408589431  0.4656663856266099  1.0000
  C   C4038     1.0  0.7076192463579374  0.15037180239631362  0.870225566656724  1.0000
  O   O1190     1.0  0.6977710642279842  0.14185877255723414  0.8866535369528529  1.0000
  C   C4039     1.0  0.7129277311131503  0.13002896060530836  0.852817796939355  1.0000
  O   O1191     1.0  0.693374428488515  0.11211572604809177  0.8482290696498797  1.0000
  C   C4040     1.0  0.7162498819122838  0.13981177594387784  0.8326992488232211  1.0000
  O   O1192     1.0  0.6955525241027108  0.1520778314412942  0.82918830089711  1.0000
  I   I5        1.0  0.595156581583697  0.5083798291553938  0.9458824119668282  1.0000
  I   I6        1.0  0.3277070744458929  0.3919051896151786  0.1673170811671329  1.0000
  I   I7        1.0  0.7524069883825494  0.35980301183709357  0.27878559532356945  1.0000
  I   I8        1.0  0.7047095375834252  0.6938040061777205  0.7397326137378719  1.0000
  I   I9        1.0  0.9804064423880559  0.8387744988560899  0.9722390163981919  1.0000
  I   I10       1.0  0.2857732035420939  0.7137640323278339  0.9278867625967149  1.0000
  I   I11       1.0  0.3882280475988772  0.05559658050572862  0.12401032744012197  1.0000
  I   I12       1.0  0.19911327113756544  0.7627789356773058  0.3024804113272304  1.0000
  I   I13       1.0  0.04846865094148436  0.4923748071688757  0.21811968115844174  1.0000
  I   I14       1.0  0.951139528973277  0.05083598837853348  0.9808449213147524  1.0000
  I   I15       1.0  0.2678406733727261  0.40845894620749423  0.6045856135681285  1.0000
  I   I16       1.0  0.14356911637049136  0.32245349176984933  0.7456277402556677  1.0000
  I   I17       1.0  0.11812383620522328  0.2620637559198539  0.7172788770011154  1.0000
  I   I18       1.0  0.21787005560159192  0.5534764610458411  0.7306204791203372  1.0000
  I   I19       1.0  0.12655285333788904  0.29490173537055797  0.6571355225273159  1.0000
  Ca  Ca1       1.0  0.8586635812985746  0.24504798867743935  0.5250259005634172  1.0000
  Ca  Ca2       1.0  0.520109714785318  0.9188305339623305  0.30429342094833467  1.0000
  Na  Na1       1.0  0.34194820109495755  0.32346192111452404  0.822199065025596  1.0000
  O   O1193     1.0  0.17008860716483298  0.48627927728545356  0.6341918860799391  1.0000
  O   O1194     1.0  0.9733341003943858  0.6923263025728907  0.7646848389987912  1.0000
  O   O1195     1.0  0.8352444049750407  0.14685042493060138  0.34508573685263866  1.0000
  O   O1196     1.0  0.26240820251823094  0.2932312361138635  0.30101109288717964  1.0000
  O   O1197     1.0  0.15769268440190676  0.9270183152108682  0.7061581535700381  1.0000
  O   O1198     1.0  0.7238419078502625  0.6365935337517644  0.07390953634222559  1.0000
  O   O1199     1.0  0.17572023770986978  0.1799082455873544  0.4523574434880959  1.0000
  O   O1200     1.0  0.9835993133741024  0.01437178684631325  0.6986300280168419  1.0000
  O   O1201     1.0  0.7368935609287959  0.4662929575997053  0.5850712750950928  1.0000
  O   O1202     1.0  0.284834137292055  0.3453682086181412  0.2851056822823791  1.0000
  O   O1203     1.0  0.5730707247844316  0.6541423869914493  0.7689143065004784  1.0000
  O   O1204     1.0  0.045729475997183425  0.7739444680807107  0.8439832721578384  1.0000
  O   O1205     1.0  0.03284815997898057  0.3184749326580825  0.05447684782095992  1.0000
  O   O1206     1.0  0.6392072719445183  0.34382479404663785  0.938533916307526  1.0000
  O   O1207     1.0  0.7228408423815811  0.3490111682319261  0.0403840661454538  1.0000
  O   O1208     1.0  0.34868049757377734  0.9024501380067846  0.5227883111931089  1.0000
  O   O1209     1.0  0.7994371549512732  0.3658187810833174  0.7588713624327655  1.0000
  O   O1210     1.0  0.8865831639854777  0.8227853239212066  0.21442910333843668  1.0000
  O   O1211     1.0  0.9212114928543553  0.7873130644133949  0.1973479334281477  1.0000
  O   O1212     1.0  0.1897005624083215  0.47431676218284846  0.798242969176271  1.0000
  O   O1213     1.0  0.11998215397644972  0.1976672504851372  0.9642536511150835  1.0000
  O   O1214     1.0  0.8991564234593116  0.9088343097578779  0.12265455754892984  1.0000
  O   O1215     1.0  0.43176691723879757  0.2220844175512703  0.5082550004698543  1.0000
  O   O1216     1.0  0.23859232362970983  0.9912501875087115  0.22708522655460006  1.0000
  O   O1217     1.0  0.6308772766077897  0.40448584047543273  0.71933645578572  1.0000
  O   O1218     1.0  0.7912242515642958  0.8930738181619002  0.9011872283679171  1.0000
  O   O1219     1.0  0.8314539913431884  0.1377163086248035  0.8618482816051196  1.0000
  O   O1220     1.0  0.48224953375705726  0.3849592692966751  0.599882576346175  1.0000
  O   O1221     1.0  0.6982669147046718  0.06885787394241139  0.8219867751509939  1.0000
  O   O1222     1.0  0.8407361840877481  0.363679526343064  0.4592160394367779  1.0000
  O   O1223     1.0  0.8181060834139597  0.2524546816830907  0.6562537030481995  1.0000
  O   O1224     1.0  0.4071322286367115  0.2391068235663419  0.31236043618321296  1.0000
  O   O1225     1.0  0.3463882969152532  0.027152614189189777  0.3049139605817869  1.0000
  O   O1226     1.0  0.3299726588567507  0.5915184469999729  0.10287893923023006  1.0000
  O   O1227     1.0  0.45028155124309355  0.24686938690935345  0.38514320319101225  1.0000
  O   O1228     1.0  0.3795010494774952  0.01167864976052496  0.5397228918820215  1.0000
  O   O1229     1.0  0.6921540860014508  0.3093498320898515  0.3601746479397391  1.0000
  O   O1230     1.0  0.5845820526327563  0.4251074965224191  0.4265723887191224  1.0000
  O   O1231     1.0  0.2756686650029379  0.670906056005331  0.431030095393956  1.0000
  O   O1232     1.0  0.7051441368908756  0.9720610316853449  0.027189433939417945  1.0000
  O   O1233     1.0  0.017216417575655642  0.09357572402822058  0.3021374815297963  1.0000
  O   O1234     1.0  0.07435993111787755  0.016640196091785908  0.3253750578035451  1.0000
  O   O1235     1.0  0.07212937771544733  0.13774784055923564  0.7942911115106019  1.0000
  O   O1236     1.0  0.17245428573593424  0.6795319997653874  0.3473062348489735  1.0000
  O   O1237     1.0  0.9295968135091255  0.3235097972330451  0.6866928050680645  1.0000
  O   O1238     1.0  0.922608909000039  0.2779696568031731  0.7632804598283468  1.0000
  O   O1239     1.0  0.890137984436508  0.8324198832320677  0.010973753517891208  1.0000
  O   O1240     1.0  0.3690934186842847  0.418342080124253  0.7429986118086729  1.0000
  O   O1241     1.0  0.7787147050061839  0.007793297145211406  0.6309422179994921  1.0000
  O   O1242     1.0  0.9523132832324904  0.6366142922869427  0.3534626412124333  1.0000
  O   O1243     1.0  0.8782492648657719  0.2308569709034709  0.6519915755658043  1.0000
  O   O1244     1.0  0.36962099307582547  0.4921870778204249  0.15484096853667323  1.0000
  O   O1245     1.0  0.6115013428467366  0.5295948619890049  0.2093504763383412  1.0000
  O   O1246     1.0  0.012557815593534718  0.7329467666654698  0.0007021895852222052  1.0000
  O   O1247     1.0  0.657682150695962  0.3175281823945832  0.9009422785126071  1.0000
  O   O1248     1.0  0.7607490745146104  0.3183262548762725  0.34666974591697697  1.0000
  O   O1249     1.0  0.9399082109452523  0.09134084247934122  0.7475710091077943  1.0000
  O   O1250     1.0  0.1360625625319651  0.6031828839413524  0.7868446359091756  1.0000
  O   O1251     1.0  0.26498948140137435  0.23144023952331932  0.3738101898853331  1.0000
  O   O1252     1.0  0.8084809777495889  0.4521047184394228  0.7419534924260166  1.0000
  O   O1253     1.0  0.7272025190110627  0.5234496626338782  0.6268107304399289  1.0000
  O   O1254     1.0  0.2964803510216504  0.6637677038706526  0.2584057673617715  1.0000
  O   O1255     1.0  0.6484557892405349  0.4106850186062364  0.30509359047568085  1.0000
  O   O1256     1.0  0.7105108289744069  0.5423454468224957  0.8866372069624988  1.0000
  O   O1257     1.0  0.5020273676632369  0.5023695228804678  0.24860777314936866  1.0000
  O   O1258     1.0  0.8626126922583779  0.2746427782367333  0.6622957994791814  1.0000
  O   O1259     1.0  0.5969223658989047  0.36525059184699116  0.7104039510620793  1.0000
  O   O1260     1.0  0.5868226910086118  0.015272218058791493  0.6267617404688669  1.0000
  O   O1261     1.0  0.26443747461134826  0.153529042669036  0.6380620937938382  1.0000
  O   O1262     1.0  0.8290491020631687  0.7865146516139272  0.05909823509114327  1.0000
  O   O1263     1.0  0.6993215597134128  0.9491202859001414  0.7377893448857453  1.0000
  O   O1264     1.0  0.8037324582584935  0.9057211726911794  0.1473781629448931  1.0000
  O   O1265     1.0  0.4495072586116635  0.25521950060085796  0.34258724832847587  1.0000
  O   O1266     1.0  0.5979777860874014  0.3283927591268125  0.7395529838439778  1.0000
  O   O1267     1.0  0.2327668261611806  0.3293363372440179  0.43873823153285596  1.0000
  O   O1268     1.0  0.2159500600090165  0.07106302982133898  0.5392819821424633  1.0000
  O   O1269     1.0  0.7806990195039389  0.9108359125702035  0.9465192815906344  1.0000
  O   O1270     1.0  0.19500954506384655  0.28070689709498525  0.7147477284962447  1.0000
  O   O1271     1.0  0.9431008995157477  0.4854060616938346  0.8668779186341531  1.0000
  O   O1272     1.0  0.8976270715352392  0.15765668111850717  0.4622697476329768  1.0000
  O   O1273     1.0  0.691344934761577  0.19225321295689946  0.6563843429710315  1.0000
  O   O1274     1.0  0.7327563770226998  0.26003168596224974  0.4803797069355681  1.0000
  O   O1275     1.0  0.40919670174422507  0.5476303755608517  0.774319533307654  1.0000
  O   O1276     1.0  0.4923302491348671  0.4568943897255394  0.5430215499335305  1.0000
  O   O1277     1.0  0.7010675506026739  0.24296115085023448  0.05684469642229061  1.0000
  O   O1278     1.0  0.17071595353137203  0.06373001158001508  0.14906053264316532  1.0000
  O   O1279     1.0  0.7567949646778861  0.3284761870761071  0.7417412025514145  1.0000
  O   O1280     1.0  0.08747902916505651  0.10937755841418888  0.7495469379406288  1.0000
  O   O1281     1.0  0.9325610998039928  0.7745761070345888  0.4131977459273828  1.0000
  O   O1282     1.0  0.9527314735190581  0.7755202703318266  0.1314400923593844  1.0000
  O   O1283     1.0  0.2952090552724671  0.1764262818641207  0.5665040760625893  1.0000
  O   O1284     1.0  0.800083661057935  0.3156204355700791  0.7907148436230749  1.0000
  O   O1285     1.0  0.7750449434372233  0.22234668961230353  0.16266303391624154  1.0000
  O   O1286     1.0  0.6951605530013771  0.22937463289420557  0.6912162123961239  1.0000
  O   O1287     1.0  0.8924600319863434  0.28237577002144115  0.7866323460345737  1.0000
  O   O1288     1.0  0.6753990879432724  0.9857402497192439  0.3506052735922922  1.0000
  O   O1289     1.0  0.7840342452121587  0.14629679353478095  0.8615706717691015  1.0000
  O   O1290     1.0  0.060655825026029765  0.474558800479878  0.7496612478731068  1.0000
  O   O1291     1.0  0.273111409575411  0.269080360358939  0.3583946789911525  1.0000
  O   O1292     1.0  0.5234088352891464  0.45395793506255183  0.23685056078629496  1.0000
  O   O1293     1.0  0.950372363019609  0.7041699968950862  0.3098125769961786  1.0000
  O   O1294     1.0  0.7505468486428439  0.1442846456137521  0.6223036531022236  1.0000
  O   O1295     1.0  0.32465038665165447  0.41560747530994957  0.942061194223991  1.0000
  O   O1296     1.0  0.2899882459450801  0.2999401631339762  0.47422330057210826  1.0000
  O   O1297     1.0  0.1793791866407967  0.5982106500452796  0.08249911126843211  1.0000
  O   O1298     1.0  0.9991652385846129  0.9946632564986769  0.9309568007832678  1.0000
  O   O1299     1.0  0.8305623210744151  0.3806300408021149  0.8488332792929778  1.0000
  O   O1300     1.0  0.5668380187708157  0.9311985828794219  0.45879145968757373  1.0000
  O   O1301     1.0  0.684807962517601  0.21818678556244223  0.23262109328460778  1.0000
  O   O1302     1.0  0.5114613787672893  0.17949456536609826  0.3159203740803861  1.0000
  O   O1303     1.0  0.05397015205432045  0.48214097131310335  0.7902249439124547  1.0000
  O   O1304     1.0  0.24385125634917093  0.2513352121003781  0.9516632285521459  1.0000
  O   O1305     1.0  0.8310359202790578  0.40566169697241006  0.712886109595888  1.0000
  O   O1306     1.0  0.42987462777331353  0.5648880676610364  0.6871500447979766  1.0000
  O   O1307     1.0  0.7586028540971553  0.2560743061247406  0.44785036615039064  1.0000
  O   O1308     1.0  0.5143117609029626  0.16591275688739393  0.25922264757128155  1.0000
  O   O1309     1.0  0.3910142032063814  0.6041400433080139  0.41427552529074707  1.0000
  O   O1310     1.0  0.6161926739063951  0.6488441870712136  0.1662719617844766  1.0000
  O   O1311     1.0  0.7017882642135802  0.0723751998777022  0.6301093884914379  1.0000
  O   O1312     1.0  0.7958780231062406  0.15309442674478005  0.5645934671911708  1.0000
  O   O1313     1.0  0.8555122314084749  0.4722753707548275  0.688668733900899  1.0000
  O   O1314     1.0  0.1823764975759321  0.41843875951895787  0.6756374015984032  1.0000
  O   O1315     1.0  0.06610848956670377  0.6983645453148832  0.3510947926111026  1.0000
  O   O1316     1.0  0.3846919533403127  0.3597506763603683  0.27925954573564526  1.0000
  O   O1317     1.0  0.448468720385124  0.1854754804787003  0.19039173822915134  1.0000
  O   O1318     1.0  0.918584977043125  0.5194513722108204  0.8148342393759399  1.0000
  O   O1319     1.0  0.1659954283140186  0.5083549643995405  0.6688931155821992  1.0000
  O   O1320     1.0  0.40257667259970564  0.4750412831154903  0.6542777742153649  1.0000
  O   O1321     1.0  0.5683611751275263  0.4950902242573919  0.541486530840254  1.0000
  O   O1322     1.0  0.8383420726764153  0.7806654969081708  0.18456155098096194  1.0000
  O   O1323     1.0  0.7175265325301163  0.9884873902980708  0.6850598060326639  1.0000
  O   O1324     1.0  0.6753598828846592  0.901404829345383  0.5118639283380894  1.0000
  O   O1325     1.0  0.9284062652621443  0.8130075148460493  0.9969789517845091  1.0000
  O   O1326     1.0  0.45497256046809864  0.42192688501720943  0.5377632930395408  1.0000
  O   O1327     1.0  0.6063417035116014  0.0012946139176808545  0.7448602307090294  1.0000
  O   O1328     1.0  0.5827197592522586  0.1324662428739499  0.7824355385135944  1.0000
  O   O1329     1.0  0.944182832887937  0.1422692174569183  0.9727942360702281  1.0000
  O   O1330     1.0  0.23596258965440464  0.38932463913676757  0.637229264285784  1.0000
  O   O1331     1.0  0.6815412928137847  0.9705464446768824  0.7045088245442837  1.0000
  O   O1332     1.0  0.4420345210893212  0.5263367489459748  0.517416125058451  1.0000
  O   O1333     1.0  0.5898593065070348  0.09694668053003862  0.1926616068883581  1.0000
  O   O1334     1.0  0.8871744585928762  0.3225319843783224  0.12260556757786784  1.0000
  O   O1335     1.0  0.114353938493411  0.3907954479467875  0.7208878048693504  1.0000
  O   O1336     1.0  0.8541401739494023  0.5444882190063778  0.8093800225977023  1.0000
  O   O1337     1.0  0.016919967637691342  0.866432771547905  0.1819650825146752  1.0000
  O   O1338     1.0  0.908988644145264  0.5220561813291331  0.7293793998534329  1.0000
  O   O1339     1.0  0.9646541068400781  0.7406656563954177  0.8626484511324659  1.0000
  O   O1340     1.0  0.9709778352260658  0.20055095474247028  0.5698843840658683  1.0000
  O   O1341     1.0  0.1682564510818345  0.5982583057415983  0.42164035094040325  1.0000
  O   O1342     1.0  0.4248750431451549  0.38565391017174305  0.2702780510409427  1.0000
  O   O1343     1.0  0.5464949108824508  0.549138245311182  0.750216467545143  1.0000
  O   O1344     1.0  0.1751336433174161  0.27685172058562096  0.6708527144246799  1.0000
  O   O1345     1.0  0.6433998833195527  0.9959081964254989  0.6040957138575083  1.0000
  O   O1346     1.0  0.7398567605084923  0.7229116504754726  0.8866208769721449  1.0000
  O   O1347     1.0  0.9504492820464219  0.8236394819485264  0.6498033568583677  1.0000
  O   O1348     1.0  0.3368268894214184  0.18249271737130646  0.781129139285274  1.0000
  O   O1349     1.0  0.428816495124007  0.2936482650959511  0.7185852762294358  1.0000
  O   O1350     1.0  0.8788408070141918  0.417979039786745  0.6766988509714136  1.0000
  O   O1351     1.0  0.7492814151334359  0.28381729317665616  0.7934909419832556  1.0000
  O   O1352     1.0  0.3344383465278674  0.439530678130332  0.7017490561744568  1.0000
  O   O1353     1.0  0.14352195108311622  0.7959853234430296  0.04017177627085174  1.0000
  O   O1354     1.0  0.7077153054914345  0.6141397998679462  0.8159773387007202  1.0000
  O   O1355     1.0  0.5450173844187804  0.9962921720971507  0.7202999252166062  1.0000
  O   O1356     1.0  0.5476053500330994  0.45644134076891957  0.554828132959476  1.0000
  O   O1357     1.0  0.5601743056778039  0.09829400611814736  0.8432974125629702  1.0000
  O   O1358     1.0  0.34769335007314484  0.9122428086252539  0.09812691203721469  1.0000
  O   O1359     1.0  0.582192673151015  0.5919365780015267  0.6312361578258643  1.0000
  O   O1360     1.0  0.38074476946352387  0.24406990043295065  0.7840195475779328  1.0000
  O   O1361     1.0  0.2451630453537177  0.280592509202684  0.4669727848549302  1.0000
  O   O1362     1.0  0.8091127816072088  0.5376097434294675  0.5069322712511799  1.0000
  O   O1363     1.0  0.7538063949327505  0.5053836887124353  0.8173817178711646  1.0000
  O   O1364     1.0  0.5831941385995623  0.35091193596599485  0.8462368108266911  1.0000
  O   O1365     1.0  0.7604098541610738  0.009283581982081492  0.3301437956787242  1.0000
  O   O1366     1.0  0.8865971586157991  0.2666446955666554  0.5103615692255209  1.0000
  O   O1367     1.0  0.6524000122430329  0.6888250546546595  0.801476307266364  1.0000
  O   O1368     1.0  0.9371028292167445  0.46212288700425375  0.6689257755629072  1.0000
  O   O1369     1.0  0.2725528510132331  0.14363742866847354  0.8691314573030058  1.0000
  O   O1370     1.0  0.11867930856446186  0.7250040109451212  0.8058527446812372  1.0000
  O   O1371     1.0  0.6571417467736463  0.5397443692065796  0.6117871393142446  1.0000
  O   O1372     1.0  0.15179389359641482  0.10823362526266134  0.3060897198872752  1.0000
  O   O1373     1.0  0.9130766166567273  0.779864569938802  0.8387576752445569  1.0000
  O   O1374     1.0  0.2094599923574091  0.7602175975491616  0.9947090831253025  1.0000
  O   O1375     1.0  0.6183622959557495  0.9301531915540933  0.7836766177804988  1.0000
  O   O1376     1.0  0.6460293143268356  0.4512033497399772  0.8590068632835228  1.0000
  O   O1377     1.0  0.36354152486089547  0.2778745333694002  0.8083512332053999  1.0000
  O   O1378     1.0  0.8234041161760699  0.5944780307996139  0.3569409291578363  1.0000
  O   O1379     1.0  0.6514849776239189  0.16601010013203424  0.8894133053226797  1.0000
  O   O1380     1.0  0.8999828566820296  0.40777745182360176  0.9493280399315231  1.0000
  O   O1381     1.0  0.8326603300730544  0.21393486843370169  0.23858115907200972  1.0000
  O   O1382     1.0  0.13292199723911113  0.24478399649183147  0.6240672920604562  1.0000
  O   O1383     1.0  0.5357065256112086  0.29198779644269784  0.17976091450869425  1.0000
  O   O1384     1.0  0.5053267306153065  0.9136012218586448  0.5441973092390189  1.0000
  O   O1385     1.0  0.45465675941828665  0.07818863028844594  0.72614606176334  1.0000
  O   O1386     1.0  0.6801055088430563  0.9801690508212603  0.7767037118993387  1.0000
  O   O1387     1.0  0.4554717749532784  0.47378762829460536  0.4041023219920119  1.0000
  O   O1388     1.0  0.14101384599961186  0.0696250899599048  0.3889317609531414  1.0000
  O   O1389     1.0  0.7931036429601895  0.7193945760431801  0.28492567169667526  1.0000
  O   O1390     1.0  0.602724554665189  0.05564990742196284  0.5845160554230566  1.0000
  O   O1391     1.0  0.6383111056787121  0.8627409768689178  0.5580941310302768  1.0000
  O   O1392     1.0  0.6262888239230826  0.03945973078678863  0.6143836077805314  1.0000
  O   O1393     1.0  0.8273123636000704  0.5864934534755091  0.6082108714267175  1.0000
  O   O1394     1.0  0.7923481693835055  0.6507193506662027  0.27127379976072724  1.0000
  O   O1395     1.0  0.1907976212303224  0.5044224402795762  0.767134337551892  1.0000
  O   O1396     1.0  0.829829506598015  0.6122886218291109  0.6688604556014912  1.0000
  O   O1397     1.0  0.36511513856566935  0.5240552028643117  0.6251450714238205  1.0000
  O   O1398     1.0  0.8156854792016438  0.8471363674893009  0.952218448224182  1.0000
  O   O1399     1.0  0.5780425772768847  0.9081965470264965  0.5976780276483844  1.0000
  O   O1400     1.0  0.34627207067447807  0.9107315071389523  0.6879338843349688  1.0000
  O   O1401     1.0  0.3496017860841379  0.38119474717974094  0.8829956191135558  1.0000
  O   O1402     1.0  0.003643815728103989  0.14822790836361419  0.6246061817421382  1.0000
  O   O1403     1.0  0.720138038204399  0.028574607733869065  0.07719186440338056  1.0000
  O   O1404     1.0  0.03012296498080573  0.006021125419006852  0.9119486920112063  1.0000
  O   O1405     1.0  0.14180705628636936  0.17181362140188272  0.3998075345289086  1.0000
  O   O1406     1.0  0.7192626574985448  0.0882342770441513  0.5457813183033573  1.0000
  O   O1407     1.0  0.8355604314980185  0.8578423429121039  0.9878178271959125  1.0000
  O   O1408     1.0  0.8177459031633377  0.571806626178773  0.6897791732449714  1.0000
  O   O1409     1.0  0.8584807694322298  0.5406778779851172  0.69890763785286  1.0000
  O   O1410     1.0  0.010567568215324256  0.30598789759748846  0.25135121152884143  1.0000
  O   O1411     1.0  0.7903725240062724  0.31550742720860037  0.637425224170032  1.0000
  O   O1412     1.0  0.411014520230195  0.08348622473889586  0.6945312004379867  1.0000
  O   O1413     1.0  0.9398494664925914  0.29650606538438684  0.6452636195399544  1.0000
  O   O1414     1.0  0.2326191679142991  0.5510210023202726  0.996505382064243  1.0000
  O   O1415     1.0  0.3539232607939284  0.6817287378136493  0.31221308557821725  1.0000
  O   O1416     1.0  0.0052535943919428665  0.3364559091118358  0.6646799780708661  1.0000
  O   O1417     1.0  0.8406197928012021  0.2978167554748471  0.7994023984914054  1.0000
  O   O1418     1.0  0.3595903778978665  0.528152408263541  0.5871125238893433  1.0000
  O   O1419     1.0  0.33813106534740955  0.17801082698297313  0.8147689194145239  1.0000
  O   O1420     1.0  0.7520308594161293  0.464489078246671  0.8246648935690508  1.0000
  O   O1421     1.0  0.028324406113542443  0.28800716222454703  0.6688277956207832  1.0000
  O   O1422     1.0  0.4459921849480382  0.7016204389159018  0.2548948194356605  1.0000
  O   O1423     1.0  0.9405636703997833  0.5194710709658912  0.7060765036182681  1.0000
  O   O1424     1.0  0.2585146002489368  0.11185347787382612  0.16431274363380577  1.0000
  O   O1425     1.0  0.43400264857368653  0.936202580660884  0.4610613283467805  1.0000
  O   O1426     1.0  0.5365946022827783  0.2379614174585118  0.6992342376599401  1.0000
  O   O1427     1.0  0.7357543809678961  0.1201137274662743  0.11177878397316267  1.0000
  O   O1428     1.0  0.8351287881076984  0.7356325860957786  0.08236847134560006  1.0000
  O   O1429     1.0  0.819569794910847  0.7824556011511883  0.09933533132341103  1.0000
  O   O1430     1.0  0.6412797331910041  0.9720426377570636  0.794356431472018  1.0000
  O   O1431     1.0  0.017771979172204293  0.03433747102773544  0.6759476714151293  1.0000
  O   O1432     1.0  0.6911197507662414  0.3593036916029879  0.006172736353813804  1.0000
  O   O1433     1.0  0.13424044236508495  0.2058758887667716  0.6246551717132003  1.0000
  O   O1434     1.0  0.10533377741446603  0.7683505579892432  0.8929242532487907  1.0000
  O   O1435     1.0  0.013649756213860106  0.18532962050754098  0.6219770532951435  1.0000
  O   O1436     1.0  0.5670795514406777  0.8991711639013954  0.5571959815608065  1.0000
  O   O1437     1.0  0.6139167817387171  0.5814148285942929  0.08584675929100308  1.0000
  O   O1438     1.0  0.3152065075665939  0.5668053622811919  0.30104337217607796  1.0000
  O   O1439     1.0  0.6724562967296179  0.31889477031963015  0.037640627765981004  1.0000
  O   O1440     1.0  0.08458578934454362  0.23231094589643977  0.6665089369905145  1.0000
  O   O1441     1.0  0.5518837853515783  0.8878758871091568  0.6528733950449206  1.0000
  O   O1442     1.0  0.31270104262275533  0.8898738908910051  0.19595988424805727  1.0000
  O   O1443     1.0  0.6122288097801944  0.9066619035147339  0.6570702025658998  1.0000
  O   O1444     1.0  0.5393603303616525  0.4349479784242792  0.7783857009058013  1.0000
  O   O1445     1.0  0.45935097091619514  0.36317207270636737  0.757352673329843  1.0000
  O   O1446     1.0  0.5832321934858848  0.024774811942347617  0.5529828440494734  1.0000
  O   O1447     1.0  0.19154668814916942  0.46160120284065065  0.7059948536664981  1.0000
  O   O1448     1.0  0.17271942857863556  0.4568044795128  0.0841321103038326  1.0000
  O   O1449     1.0  0.7521259503983104  0.6619377083342332  0.23807492937103558  1.0000
  O   O1450     1.0  0.32028552357217815  0.6793128664013666  0.5195713030933699  1.0000
  O   O1451     1.0  0.23281383898111707  0.018684086161180242  0.44213486952648895  1.0000
  O   O1452     1.0  0.4049339616694853  0.4218081974125284  0.2622923050660247  1.0000
  O   O1453     1.0  0.2965056940427713  0.31107626865407123  0.26787754245890405  1.0000
  O   O1454     1.0  0.06950772599490855  0.9844330212755905  0.8777536922099203  1.0000
  O   O1455     1.0  0.6914164868262022  0.6314456087070616  0.21787473130313167  1.0000
  O   O1456     1.0  0.04452995236478737  0.875928664590094  0.5617679981681183  1.0000
  O   O1457     1.0  0.9084323175891104  0.12258652578131103  0.4813431763664544  1.0000
  O   O1458     1.0  0.20278425663432986  0.4456215521201151  0.5957837487673199  1.0000
  O   O1459     1.0  0.37807281210389365  0.4181037000094653  0.027728323621100105  1.0000
  O   O1460     1.0  0.4902052099149399  0.4960851128405715  0.4042329619148439  1.0000
  O   O1461     1.0  0.5264385805813592  0.6888805576656423  0.7546582249214323  1.0000
  O   O1462     1.0  0.21901853712461694  0.9496196987009795  0.14047057702514906  1.0000
  O   O1463     1.0  0.3485512987729395  0.7667353831002858  0.28399486224649695  1.0000
  O   O1464     1.0  0.18369529298670473  0.2681298033357263  0.298398294430539  1.0000
  O   O1465     1.0  0.17972699574179787  0.03672819971240659  0.8047912953082269  1.0000
  O   O1466     1.0  0.7225485618215508  0.7757761398130043  0.24143890738396057  1.0000
  O   O1467     1.0  0.032987950868156826  0.8210854502244169  0.9502915093624095  1.0000
  O   O1468     1.0  0.7169509641332437  0.046812439667014774  0.46744635457519634  1.0000
  O   O1469     1.0  0.6194544037083904  0.6582191032506877  0.006629976083725938  1.0000
  O   O1470     1.0  0.7163083627376059  0.4675519431382997  0.3205254313602154  1.0000
  O   O1471     1.0  0.15721707254957398  0.45780723219626485  0.2484118132651206  1.0000
  O   O1472     1.0  0.306552888889047  0.1192828465364033  0.6912162123961239  1.0000
  O   O1473     1.0  0.27216424494758656  0.5244778180329774  0.9768440736780213  1.0000
  O   O1474     1.0  0.3370617293296596  0.5192985905143535  0.859937672733701  1.0000
  O   O1475     1.0  0.7249541794617284  0.7758383237444569  0.01296601234107979  1.0000
  O   O1476     1.0  0.7091683339810444  0.8047528140888306  0.2214020092195967  1.0000
  O   O1477     1.0  0.08331994567104598  0.00159742129270013  0.9902836557393672  1.0000
  O   O1478     1.0  0.599931809152455  0.5771873098290452  0.9439228131243476  1.0000
  O   O1479     1.0  0.5574367880680277  0.6824142537537353  0.664794288003344  1.0000
  O   O1480     1.0  0.2671936601987859  0.33163281173416703  0.0677204699980578  1.0000
  O   O1481     1.0  0.4502122460672662  0.8997383965309612  0.4697321725329473  1.0000
  O   O1482     1.0  0.648714662071803  0.6967991146932094  0.6928328814411702  1.0000
  O   O1483     1.0  0.703366569535494  0.5148050763018445  0.8523115672383809  1.0000
  O   O1484     1.0  0.594625522954962  0.6301226061335826  0.6366087246523318  1.0000
  O   O1485     1.0  0.03554559288029404  0.8036827850072031  0.9018404279820773  1.0000
  O   O1486     1.0  0.7490880963103691  0.6561732997775956  0.2999002728512976  1.0000
  O   O1487     1.0  0.18945664432483644  0.06773631283654974  0.49724858697125507  1.0000
  O   O1488     1.0  0.6362888816488544  0.9519434274838222  0.9523327581566601  1.0000
  O   O1489     1.0  0.7358837770801829  0.8592588713638952  0.17050142928616385  1.0000
  O   O1490     1.0  0.735726145643423  0.815328041416824  0.8188187570223171  1.0000
  O   O1491     1.0  0.39174158211390264  0.3167645605534593  0.7723599344651735  1.0000
  O   O1492     1.0  0.7413510743469742  0.7919822050309495  0.7846237572210311  1.0000
  O   O1493     1.0  0.7286583131145856  0.003775537243165964  0.6557311433568713  1.0000
  O   O1494     1.0  0.11794289355866439  0.07434675862374947  0.2881757204689319  1.0000
  O   O1495     1.0  0.6136033755254127  0.5625559586127941  0.48358038504495304  1.0000
  O   O1496     1.0  0.17606528852852624  0.8230876568805787  0.03416233982057799  1.0000
  O   O1497     1.0  0.7056748795606793  0.6658853076874215  0.627202650208425  1.0000
  O   O1498     1.0  0.1133679047098505  0.8377983482075302  0.9061188854548266  1.0000
  O   O1499     1.0  0.8705305343428111  0.7779731814091339  0.7105999109463275  1.0000
  O   O1500     1.0  0.997618150433246  0.7374317001112741  0.8193413167136452  1.0000
  O   O1501     1.0  0.08918264840973118  0.9287334568033283  0.19769086322558177  1.0000
  O   O1502     1.0  0.21344861156367678  0.28357454233401613  0.4857196137813278  1.0000
  O   O1503     1.0  0.9723139170702367  0.20028077763278912  0.49641575746320077  1.0000
  O   O1504     1.0  0.5077447631058633  0.5386966384521177  0.4653887757905918  1.0000
  O   O1505     1.0  0.7293194790974109  0.22450063324720143  0.23583772069253692  1.0000
  O   O1506     1.0  0.15923407004899282  0.41244374991448024  0.1364860593787719  1.0000
  O   O1507     1.0  0.8567326127773172  0.4242343102588621  0.42067726220132673  1.0000
  O   O1508     1.0  0.7700514155719803  0.45890824725741025  0.33411198333474734  1.0000
  O   O1509     1.0  0.014188606972969068  0.568822504199166  0.6883584640841729  1.0000
  O   O1510     1.0  0.8129691494572002  0.39008969879598165  0.49600750770435076  1.0000
  O   O1511     1.0  0.6736329174475745  0.4306996893191244  0.057236616190786724  1.0000
  O   O1512     1.0  0.3260231897076897  0.4274422453828962  0.9102177130336817  1.0000
  O   O1513     1.0  0.2192737723754633  0.9452330892988071  0.17286965857930425  1.0000
  O   O1514     1.0  0.682041228051222  0.31071508392288477  0.21382527438714827  1.0000
  O   O1515     1.0  0.011606639486144021  0.9228078138868095  0.22718282580491442  1.0000
  O   O1516     1.0  0.3218767730875989  0.5957354238551859  0.6426834810640216  1.0000
  O   O1517     1.0  0.21126686201339062  0.03507147141543042  0.1083172067099234  1.0000
  O   O1518     1.0  0.9781613602921575  0.6596424255089242  0.40780884911056114  1.0000
  O   O1519     1.0  0.5162602516238106  0.4391708917442972  0.8088737928967281  1.0000
  O   O1520     1.0  0.375282468772387  0.02029044332342989  0.3654982247951446  1.0000
  O   O1521     1.0  0.27708882260835527  0.20397975018027217  0.9571664353014455  1.0000
  O   O1522     1.0  0.21918527105570562  0.10309739644014879  0.17705013610992948  1.0000
  O   O1523     1.0  0.7934076545750282  0.863994719368525  0.9781014829352797  1.0000
  O   O1524     1.0  0.9444463106364513  0.5564008930951789  0.7237292231909473  1.0000
  O   O1525     1.0  0.02889972825074808  0.04435049960014149  0.9944478032796383  1.0000
  O   O1526     1.0  0.9769338452170807  0.1180583997154421  0.9847477890093596  1.0000
  O   O1527     1.0  0.27416354842937357  0.7231186598686227  0.8412724937590736  1.0000
  O   O1528     1.0  0.02838141289974675  0.4082754015651936  0.273674308342766  1.0000
  O   O1529     1.0  0.6027744723215  0.05855856598764105  0.7274851209723684  1.0000
  O   O1530     1.0  0.6026975924076723  0.706059212280854  0.04231100500722637  1.0000
  O   O1531     1.0  0.7847912666439618  0.10796968970446906  0.5487697065381401  1.0000
  O   O1532     1.0  0.2988666124347891  0.6892997478940195  0.8406356241352674  1.0000
  O   O1533     1.0  0.06606256416271765  0.9105147484056698  0.5436580388655269  1.0000
  O   O1534     1.0  0.1683550950265188  0.6140895240043159  0.465290415156658  1.0000
  O   O1535     1.0  0.6417703794522334  0.621339445667361  0.9156066098505034  1.0000
  O   O1536     1.0  0.3205947168050726  0.5215961552192401  0.3000309127741297  1.0000
  O   O1537     1.0  0.13223105296367477  0.7114283450582493  0.7716087549088892  1.0000
  O   O1538     1.0  0.12025158119588852  0.5296626232531548  0.712347219914206  1.0000
  O   O1539     1.0  0.38877849507464046  0.9670914602888245  0.48444587453371535  1.0000
  O   O1540     1.0  0.15820989987465245  0.46640686526620895  0.7291017900174148  1.0000
  O   O1541     1.0  0.633859720537017  0.5973680873728213  0.8720871855570806  1.0000
  O   O1542     1.0  0.160547210663873  0.16703670178333774  0.5844997254327026  1.0000
  O   O1543     1.0  0.6698619930151994  0.053160996965340414  0.16436173360486783  1.0000
  O   O1544     1.0  0.22856692142057045  0.08292112353766588  0.6309912079705542  1.0000
  O   O1545     1.0  0.49282841554213974  0.8956824633679882  0.48361304502566105  1.0000
  O   O1546     1.0  0.23791860210160334  0.9921332037533691  0.08213985148064401  1.0000
  O   O1547     1.0  0.7223089040054103  0.34523437089177555  0.1426261357518777  1.0000
  O   O1548     1.0  0.7665780808510028  0.788191112634226  0.6522038654404063  1.0000
  O   O1549     1.0  0.10126169303681679  0.46944764632168845  0.7282363005286525  1.0000
  O   O1550     1.0  0.32457338215158893  0.24798133833528146  0.21521332356723866  1.0000
  O   O1551     1.0  0.4661406193273532  0.9379518181260179  0.29495266646584395  1.0000
  O   O1552     1.0  0.6870136997000926  0.40714674045963467  0.2435944661106892  1.0000
  O   O1553     1.0  0.42989699073293464  0.564403296229128  0.8332707984856113  1.0000
  O   O1554     1.0  0.9670030440401064  0.32618114311847357  0.616392196594074  1.0000
  O   O1555     1.0  0.6347303001043874  0.6161514679320337  0.8386270353217249  1.0000
  O   O1556     1.0  0.3390678045750255  0.39501650243232567  0.27096391063581093  1.0000
  O   O1557     1.0  0.5671928978602288  0.4175332503827649  0.0735992665254995  1.0000
  O   O1558     1.0  0.1919237667375957  0.872441768292459  0.20415753940576767  1.0000
  O   O1559     1.0  0.08108357377731823  0.13145324248454568  0.2596472273204856  1.0000
  O   O1560     1.0  0.2539590828850752  0.5806887050337521  0.9725002962438559  1.0000
  O   O1561     1.0  0.7239893054304617  0.7886063983131938  0.9721083764753599  1.0000
  O   O1562     1.0  0.532687923017681  0.3997732569963213  0.19774023388845352  1.0000
  O   O1563     1.0  0.7205078206032394  0.7042709741578906  0.8345118777525156  1.0000
  O   O1564     1.0  0.5798047911589892  0.7131732761702589  0.6979115084412657  1.0000
  O   O1565     1.0  0.6123212490924371  0.6280684773331651  0.534856554756528  1.0000
  O   O1566     1.0  0.133727710841012  0.6729099231444114  0.7480935687991224  1.0000
  O   O1567     1.0  0.6227749772981812  0.48484629895762643  0.8298904904823323  1.0000
  O   O1568     1.0  0.9398954061538944  0.5030705975077334  0.6604668405595328  1.0000
  O   O1569     1.0  0.8912153191848325  0.8064986100419725  0.7005243068979066  1.0000
  O   O1570     1.0  0.4640601811105429  0.7237252602480199  0.11504478204396362  1.0000
  O   O1571     1.0  0.4844828408517934  0.4318351410029702  0.8376472359004845  1.0000
  O   O1572     1.0  0.7672886517251475  0.7082077503095816  0.2505673719918492  1.0000
  O   O1573     1.0  0.15413190924508413  0.9601458238451116  0.40945855882812543  1.0000
  O   O1574     1.0  0.05848949726997701  0.2726711636009823  0.6348450856940993  1.0000
  O   O1575     1.0  0.5177538640513921  0.5182874104086305  0.9663602198707502  1.0000
  O   O1576     1.0  0.5675365995367262  0.599094294845386  0.9953459527491086  1.0000
  O   O1577     1.0  0.8657062474251699  0.38574928473965847  0.5445075790557449  1.0000
  O   O1578     1.0  0.6144196958301334  0.040946187652051866  0.07410549622647367  1.0000
  O   O1579     1.0  0.13357448674943204  0.12310578271602306  0.6322976071988746  1.0000
  O   O1580     1.0  0.07548857021678836  0.05811876755429149  0.95192450839781  1.0000
  O   O1581     1.0  0.3843515410046081  0.3756032323437181  0.999902020057876  1.0000
  O   O1582     1.0  0.1567141712097485  0.09756266675458075  0.02402141581074102  1.0000
  O   O1583     1.0  0.8320400689903622  0.041481976636835165  0.4528800031794241  1.0000
  O   O1584     1.0  0.3471930242407991  0.44384560692812924  0.9741659552599644  1.0000
  O   O1585     1.0  0.4110607811492694  0.6652961483475951  0.9764848138902331  1.0000
  O   O1586     1.0  0.24450901474713815  0.2606169198462368  0.1464314041961705  1.0000
  O   O1587     1.0  0.06648548787584815  0.5432634691274406  0.6566456228166957  1.0000
  O   O1588     1.0  0.12699675138301533  0.15906801387259797  0.6106603699798182  1.0000
  O   O1589     1.0  0.9457938063017532  0.81579223415625  0.6880971842385089  1.0000
  O   O1590     1.0  0.12210339754452393  0.8917022250800093  0.6634388988039617  1.0000
  O   O1591     1.0  0.6185460911903977  0.7368055080231417  0.7215410044835107  1.0000
  O   O1592     1.0  0.5981062662670249  0.7373552303798878  0.020755417739940066  1.0000
  O   O1593     1.0  0.7673138642587356  0.8933001606301512  0.5355587443417502  1.0000
  O   O1594     1.0  0.07124878453876309  0.1582157616521886  0.04972482062794453  1.0000
  O   O1595     1.0  0.9244913909390046  0.3986038606287553  0.61005616033672  1.0000
  O   O1596     1.0  0.20722516075772524  0.9295540862458176  0.9608896731021586  1.0000
  O   O1597     1.0  0.4852640869778341  0.4687358864637828  0.8913075842037442  1.0000
  O   O1598     1.0  0.20958347433281543  0.08646383171440984  0.06610380095301131  1.0000
  O   O1599     1.0  0.054726284589395505  0.4233741528053767  0.4971175663566133  1.0000
